# File generated by Flopy version 3.8.2 on 04/10/2025 at 10:55:38.
BEGIN options
END options

BEGIN dimensions
  MAXBOUND  40
END dimensions

BEGIN period  1
  1 2.73972603E-07
  2 2.73972603E-07
  3 2.73972603E-07
  4 2.73972603E-07
  5 2.73972603E-07
  6 2.73972603E-07
  7 2.73972603E-07
  8 2.73972603E-07
  9 2.73972603E-07
  10 2.73972603E-07
  11 2.73972603E-07
  12 2.73972603E-07
  13 2.73972603E-07
  14 2.73972603E-07
  15 2.73972603E-07
  16 2.73972603E-07
  17 2.73972603E-07
  18 2.73972603E-07
  19 2.73972603E-07
  20 2.73972603E-07
  21 2.73972603E-07
  22 2.73972603E-07
  23 2.73972603E-07
  24 2.73972603E-07
  25 2.73972603E-07
  26 2.73972603E-07
  27 2.73972603E-07
  28 2.73972603E-07
  29 2.73972603E-07
  30 2.73972603E-07
  31 2.73972603E-07
  32 2.73972603E-07
  33 2.73972603E-07
  34 2.73972603E-07
  35 2.73972603E-07
  36 2.73972603E-07
  37 2.73972603E-07
  38 2.73972603E-07
  39 2.73972603E-07
  40 2.73972603E-07
END period  1

