# File generated by Flopy version 3.8.2 on 04/10/2025 at 10:55:38.
BEGIN options
END options

BEGIN dimensions
  MAXBOUND  22
END dimensions

BEGIN period  1
  121 -1.89227753E+01
  143 -1.75894419E+01
  165 -1.62561086E+01
  187 -1.52561086E+01
  227 -1.45894419E+01
  267 -1.39227753E+01
  307 -1.22561086E+01
  347 -9.58944193E+00
  387 -6.92277527E+00
  427 -3.92277527E+00
  467 -5.89441932E-01
  507 4.41055807E+00
  120 4.45222473E+00
  226 5.78555807E+00
  266 7.78555807E+00
  306 9.78555807E+00
  346 1.17855581E+01
  386 1.37855581E+01
  426 1.57855581E+01
  466 1.87855581E+01
  506 2.27855581E+01
  546 2.87855581E+01
END period  1

