# File generated by Flopy version 3.8.2 on 04/10/2025 at 10:55:38.
BEGIN options
END options

BEGIN griddata
  strt
    CONSTANT     -10.00000000
END griddata

