# File generated by Flopy version 3.8.2 on 04/10/2025 at 10:55:37.
BEGIN options
  VERTICAL_OFFSET_TOLERANCE       0.00000000
END options

BEGIN dimensions
  NODES  546
  NJA  2644
  NVERT  82
END dimensions

BEGIN griddata
  top
    INTERNAL  FACTOR  1.0
       100.00000000     100.00000000     100.00000000     100.00000000     100.00000000     100.00000000     100.00000000     100.00000000     100.00000000     100.00000000     100.00000000     100.00000000     100.00000000     100.00000000     100.00000000     100.00000000     100.00000000     100.00000000     100.00000000     100.00000000
       100.00000000     100.00000000     100.00000000     100.00000000     100.00000000     100.00000000     100.00000000     100.00000000     100.00000000     100.00000000     100.00000000     100.00000000     100.00000000     100.00000000     100.00000000     100.00000000     100.00000000     100.00000000     100.00000000     100.00000000
        66.66666667      66.66666667      66.66666667      66.66666667      66.66666667      66.66666667      66.66666667      66.66666667      66.66666667      66.66666667      66.66666667      66.66666667      66.66666667      66.66666667      66.66666667      66.66666667      66.66666667      66.66666667      66.66666667      66.66666667
        66.66666667      66.66666667      66.66666667      66.66666667      66.66666667      66.66666667      66.66666667      66.66666667      66.66666667      66.66666667      66.66666667      66.66666667      66.66666667      66.66666667      66.66666667      66.66666667      66.66666667      66.66666667      66.66666667      66.66666667
        33.33333333      33.33333333      33.33333333      33.33333333      33.33333333      33.33333333      33.33333333      33.33333333      33.33333333      33.33333333      33.33333333      33.33333333      33.33333333      33.33333333      33.33333333      33.33333333      33.33333333      33.33333333      33.33333333      33.33333333
        33.33333333      33.33333333      33.33333333      33.33333333      33.33333333      33.33333333      33.33333333      33.33333333      33.33333333      33.33333333      33.33333333      33.33333333      33.33333333      33.33333333      33.33333333      33.33333333      33.33333333      33.33333333      33.33333333      33.33333333
         0.00000000       0.00000000       0.00000000       0.00000000       0.00000000       0.00000000       0.00000000       0.00000000       0.00000000       0.00000000       0.00000000       0.00000000       0.00000000       0.00000000       0.00000000       0.00000000       0.00000000       0.00000000       0.00000000       0.00000000
         0.00000000       0.00000000     -66.66666667     -66.66666667     -66.66666667     -66.66666667     -66.66666667     -66.66666667     -66.66666667     -66.66666667     -66.66666667     -33.33333333     -33.33333333     -33.33333333     -33.33333333     -33.33333333     -33.33333333     -33.33333333     -33.33333333     -33.33333333
       -33.33333333     -33.33333333     -33.33333333     -33.33333333    -133.33333333    -133.33333333    -133.33333333    -133.33333333    -133.33333333    -133.33333333    -133.33333333    -133.33333333    -133.33333333     -66.66666667     -66.66666667     -66.66666667     -66.66666667     -66.66666667     -66.66666667     -66.66666667
       -66.66666667     -66.66666667     -66.66666667     -66.66666667     -66.66666667     -66.66666667    -200.00000000    -200.00000000    -200.00000000    -200.00000000    -200.00000000    -200.00000000    -200.00000000    -200.00000000    -200.00000000    -100.00000000    -100.00000000    -100.00000000    -100.00000000    -100.00000000
      -100.00000000    -100.00000000    -100.00000000    -100.00000000    -100.00000000    -100.00000000    -100.00000000    -100.00000000       0.00000000       0.00000000       0.00000000       0.00000000       0.00000000       0.00000000       0.00000000       0.00000000       0.00000000       0.00000000       0.00000000       0.00000000
         0.00000000       0.00000000       0.00000000       0.00000000       0.00000000       0.00000000    -233.33333333    -233.33333333    -233.33333333    -233.33333333    -233.33333333    -233.33333333    -233.33333333    -233.33333333    -233.33333333    -166.66666667    -166.66666667    -166.66666667    -166.66666667    -166.66666667
      -166.66666667    -166.66666667    -166.66666667    -166.66666667    -166.66666667    -166.66666667    -166.66666667    -166.66666667    -100.00000000    -100.00000000    -100.00000000    -100.00000000    -100.00000000    -100.00000000    -100.00000000    -100.00000000    -100.00000000    -100.00000000    -100.00000000    -100.00000000
      -100.00000000    -100.00000000    -100.00000000    -100.00000000    -100.00000000    -100.00000000    -266.66666667    -266.66666667    -266.66666667    -266.66666667    -266.66666667    -266.66666667    -266.66666667    -266.66666667    -266.66666667    -233.33333333    -233.33333333    -233.33333333    -233.33333333    -233.33333333
      -233.33333333    -233.33333333    -233.33333333    -233.33333333    -233.33333333    -233.33333333    -233.33333333    -233.33333333    -200.00000000    -200.00000000    -200.00000000    -200.00000000    -200.00000000    -200.00000000    -200.00000000    -200.00000000    -200.00000000    -200.00000000    -200.00000000    -200.00000000
      -200.00000000    -200.00000000    -200.00000000    -200.00000000    -200.00000000    -200.00000000    -300.00000000    -300.00000000    -300.00000000    -300.00000000    -300.00000000    -300.00000000    -300.00000000    -300.00000000    -300.00000000    -300.00000000    -300.00000000    -300.00000000    -300.00000000    -300.00000000
      -300.00000000    -300.00000000    -300.00000000    -300.00000000    -300.00000000    -300.00000000    -300.00000000    -300.00000000    -300.00000000    -300.00000000    -300.00000000    -300.00000000    -300.00000000    -300.00000000    -300.00000000    -300.00000000    -300.00000000    -300.00000000    -300.00000000    -300.00000000
      -300.00000000    -300.00000000    -300.00000000    -300.00000000    -300.00000000    -300.00000000    -433.33333333    -433.33333333    -433.33333333    -433.33333333    -433.33333333    -433.33333333    -433.33333333    -433.33333333    -433.33333333    -433.33333333    -433.33333333    -433.33333333    -433.33333333    -433.33333333
      -433.33333333    -433.33333333    -433.33333333    -433.33333333    -433.33333333    -433.33333333    -400.00000000    -400.00000000    -400.00000000    -400.00000000    -400.00000000    -400.00000000    -400.00000000    -400.00000000    -400.00000000    -400.00000000    -400.00000000    -400.00000000    -400.00000000    -400.00000000
      -400.00000000    -400.00000000    -400.00000000    -400.00000000    -400.00000000    -400.00000000    -566.66666667    -566.66666667    -566.66666667    -566.66666667    -566.66666667    -566.66666667    -566.66666667    -566.66666667    -566.66666667    -566.66666667    -566.66666667    -566.66666667    -566.66666667    -566.66666667
      -566.66666667    -566.66666667    -566.66666667    -566.66666667    -566.66666667    -566.66666667    -500.00000000    -500.00000000    -500.00000000    -500.00000000    -500.00000000    -500.00000000    -500.00000000    -500.00000000    -500.00000000    -500.00000000    -500.00000000    -500.00000000    -500.00000000    -500.00000000
      -500.00000000    -500.00000000    -500.00000000    -500.00000000    -500.00000000    -500.00000000    -700.00000000    -700.00000000    -700.00000000    -700.00000000    -700.00000000    -700.00000000    -700.00000000    -700.00000000    -700.00000000    -700.00000000    -700.00000000    -700.00000000    -700.00000000    -700.00000000
      -700.00000000    -700.00000000    -700.00000000    -700.00000000    -700.00000000    -700.00000000    -600.00000000    -600.00000000    -600.00000000    -600.00000000    -600.00000000    -600.00000000    -600.00000000    -600.00000000    -600.00000000    -600.00000000    -600.00000000    -600.00000000    -600.00000000    -600.00000000
      -600.00000000    -600.00000000    -600.00000000    -600.00000000    -600.00000000    -600.00000000    -866.66666667    -866.66666667    -866.66666667    -866.66666667    -866.66666667    -866.66666667    -866.66666667    -866.66666667    -866.66666667    -866.66666667    -866.66666667    -866.66666667    -866.66666667    -866.66666667
      -866.66666667    -866.66666667    -866.66666667    -866.66666667    -866.66666667    -866.66666667    -800.00000000    -800.00000000    -800.00000000    -800.00000000    -800.00000000    -800.00000000    -800.00000000    -800.00000000    -800.00000000    -800.00000000    -800.00000000    -800.00000000    -800.00000000    -800.00000000
      -800.00000000    -800.00000000    -800.00000000    -800.00000000    -800.00000000    -800.00000000   -1033.33333333   -1033.33333333   -1033.33333333   -1033.33333333   -1033.33333333   -1033.33333333   -1033.33333333   -1033.33333333   -1033.33333333   -1033.33333333   -1033.33333333   -1033.33333333   -1033.33333333   -1033.33333333
     -1033.33333333   -1033.33333333   -1033.33333333   -1033.33333333   -1033.33333333   -1033.33333333   -1000.00000000   -1000.00000000   -1000.00000000   -1000.00000000   -1000.00000000   -1000.00000000   -1000.00000000   -1000.00000000   -1000.00000000   -1000.00000000   -1000.00000000   -1000.00000000   -1000.00000000   -1000.00000000
     -1000.00000000   -1000.00000000   -1000.00000000   -1000.00000000   -1000.00000000   -1000.00000000
  bot
    INTERNAL  FACTOR  1.0
        66.66666667      66.66666667      66.66666667      66.66666667      66.66666667      66.66666667      66.66666667      66.66666667      66.66666667      66.66666667      66.66666667      66.66666667      66.66666667      66.66666667      66.66666667      66.66666667      66.66666667      66.66666667      66.66666667      66.66666667
        66.66666667      66.66666667      66.66666667      66.66666667      66.66666667      66.66666667      66.66666667      66.66666667      66.66666667      66.66666667      66.66666667      66.66666667      66.66666667      66.66666667      66.66666667      66.66666667      66.66666667      66.66666667      66.66666667      66.66666667
        33.33333333      33.33333333      33.33333333      33.33333333      33.33333333      33.33333333      33.33333333      33.33333333      33.33333333      33.33333333      33.33333333      33.33333333      33.33333333      33.33333333      33.33333333      33.33333333      33.33333333      33.33333333      33.33333333      33.33333333
        33.33333333      33.33333333      33.33333333      33.33333333      33.33333333      33.33333333      33.33333333      33.33333333      33.33333333      33.33333333      33.33333333      33.33333333      33.33333333      33.33333333      33.33333333      33.33333333      33.33333333      33.33333333      33.33333333      33.33333333
         0.00000000       0.00000000       0.00000000       0.00000000       0.00000000       0.00000000       0.00000000       0.00000000       0.00000000       0.00000000       0.00000000       0.00000000       0.00000000       0.00000000       0.00000000       0.00000000       0.00000000       0.00000000       0.00000000       0.00000000
         0.00000000       0.00000000       0.00000000       0.00000000       0.00000000       0.00000000       0.00000000       0.00000000       0.00000000       0.00000000       0.00000000       0.00000000       0.00000000       0.00000000       0.00000000       0.00000000       0.00000000       0.00000000       0.00000000       0.00000000
       -66.66666667     -66.66666667     -66.66666667     -66.66666667     -66.66666667     -66.66666667     -66.66666667     -66.66666667     -66.66666667     -33.33333333     -33.33333333     -33.33333333     -33.33333333     -33.33333333     -33.33333333     -33.33333333     -33.33333333     -33.33333333     -33.33333333     -33.33333333
       -33.33333333     -33.33333333    -133.33333333    -133.33333333    -133.33333333    -133.33333333    -133.33333333    -133.33333333    -133.33333333    -133.33333333    -133.33333333     -66.66666667     -66.66666667     -66.66666667     -66.66666667     -66.66666667     -66.66666667     -66.66666667     -66.66666667     -66.66666667
       -66.66666667     -66.66666667     -66.66666667     -66.66666667    -200.00000000    -200.00000000    -200.00000000    -200.00000000    -200.00000000    -200.00000000    -200.00000000    -200.00000000    -200.00000000    -100.00000000    -100.00000000    -100.00000000    -100.00000000    -100.00000000    -100.00000000    -100.00000000
      -100.00000000    -100.00000000    -100.00000000    -100.00000000    -100.00000000    -100.00000000    -233.33333333    -233.33333333    -233.33333333    -233.33333333    -233.33333333    -233.33333333    -233.33333333    -233.33333333    -233.33333333    -166.66666667    -166.66666667    -166.66666667    -166.66666667    -166.66666667
      -166.66666667    -166.66666667    -166.66666667    -166.66666667    -166.66666667    -166.66666667    -166.66666667    -166.66666667    -100.00000000    -100.00000000    -100.00000000    -100.00000000    -100.00000000    -100.00000000    -100.00000000    -100.00000000    -100.00000000    -100.00000000    -100.00000000    -100.00000000
      -100.00000000    -100.00000000    -100.00000000    -100.00000000    -100.00000000    -100.00000000    -266.66666667    -266.66666667    -266.66666667    -266.66666667    -266.66666667    -266.66666667    -266.66666667    -266.66666667    -266.66666667    -233.33333333    -233.33333333    -233.33333333    -233.33333333    -233.33333333
      -233.33333333    -233.33333333    -233.33333333    -233.33333333    -233.33333333    -233.33333333    -233.33333333    -233.33333333    -200.00000000    -200.00000000    -200.00000000    -200.00000000    -200.00000000    -200.00000000    -200.00000000    -200.00000000    -200.00000000    -200.00000000    -200.00000000    -200.00000000
      -200.00000000    -200.00000000    -200.00000000    -200.00000000    -200.00000000    -200.00000000    -300.00000000    -300.00000000    -300.00000000    -300.00000000    -300.00000000    -300.00000000    -300.00000000    -300.00000000    -300.00000000    -300.00000000    -300.00000000    -300.00000000    -300.00000000    -300.00000000
      -300.00000000    -300.00000000    -300.00000000    -300.00000000    -300.00000000    -300.00000000    -300.00000000    -300.00000000    -300.00000000    -300.00000000    -300.00000000    -300.00000000    -300.00000000    -300.00000000    -300.00000000    -300.00000000    -300.00000000    -300.00000000    -300.00000000    -300.00000000
      -300.00000000    -300.00000000    -300.00000000    -300.00000000    -300.00000000    -300.00000000    -433.33333333    -433.33333333    -433.33333333    -433.33333333    -433.33333333    -433.33333333    -433.33333333    -433.33333333    -433.33333333    -433.33333333    -433.33333333    -433.33333333    -433.33333333    -433.33333333
      -433.33333333    -433.33333333    -433.33333333    -433.33333333    -433.33333333    -433.33333333    -400.00000000    -400.00000000    -400.00000000    -400.00000000    -400.00000000    -400.00000000    -400.00000000    -400.00000000    -400.00000000    -400.00000000    -400.00000000    -400.00000000    -400.00000000    -400.00000000
      -400.00000000    -400.00000000    -400.00000000    -400.00000000    -400.00000000    -400.00000000    -566.66666667    -566.66666667    -566.66666667    -566.66666667    -566.66666667    -566.66666667    -566.66666667    -566.66666667    -566.66666667    -566.66666667    -566.66666667    -566.66666667    -566.66666667    -566.66666667
      -566.66666667    -566.66666667    -566.66666667    -566.66666667    -566.66666667    -566.66666667    -500.00000000    -500.00000000    -500.00000000    -500.00000000    -500.00000000    -500.00000000    -500.00000000    -500.00000000    -500.00000000    -500.00000000    -500.00000000    -500.00000000    -500.00000000    -500.00000000
      -500.00000000    -500.00000000    -500.00000000    -500.00000000    -500.00000000    -500.00000000    -700.00000000    -700.00000000    -700.00000000    -700.00000000    -700.00000000    -700.00000000    -700.00000000    -700.00000000    -700.00000000    -700.00000000    -700.00000000    -700.00000000    -700.00000000    -700.00000000
      -700.00000000    -700.00000000    -700.00000000    -700.00000000    -700.00000000    -700.00000000    -600.00000000    -600.00000000    -600.00000000    -600.00000000    -600.00000000    -600.00000000    -600.00000000    -600.00000000    -600.00000000    -600.00000000    -600.00000000    -600.00000000    -600.00000000    -600.00000000
      -600.00000000    -600.00000000    -600.00000000    -600.00000000    -600.00000000    -600.00000000    -866.66666667    -866.66666667    -866.66666667    -866.66666667    -866.66666667    -866.66666667    -866.66666667    -866.66666667    -866.66666667    -866.66666667    -866.66666667    -866.66666667    -866.66666667    -866.66666667
      -866.66666667    -866.66666667    -866.66666667    -866.66666667    -866.66666667    -866.66666667    -800.00000000    -800.00000000    -800.00000000    -800.00000000    -800.00000000    -800.00000000    -800.00000000    -800.00000000    -800.00000000    -800.00000000    -800.00000000    -800.00000000    -800.00000000    -800.00000000
      -800.00000000    -800.00000000    -800.00000000    -800.00000000    -800.00000000    -800.00000000   -1033.33333333   -1033.33333333   -1033.33333333   -1033.33333333   -1033.33333333   -1033.33333333   -1033.33333333   -1033.33333333   -1033.33333333   -1033.33333333   -1033.33333333   -1033.33333333   -1033.33333333   -1033.33333333
     -1033.33333333   -1033.33333333   -1033.33333333   -1033.33333333   -1033.33333333   -1033.33333333   -1000.00000000   -1000.00000000   -1000.00000000   -1000.00000000   -1000.00000000   -1000.00000000   -1000.00000000   -1000.00000000   -1000.00000000   -1000.00000000   -1000.00000000   -1000.00000000   -1000.00000000   -1000.00000000
     -1000.00000000   -1000.00000000   -1000.00000000   -1000.00000000   -1000.00000000   -1000.00000000   -1200.00000000   -1200.00000000   -1200.00000000   -1200.00000000   -1200.00000000   -1200.00000000   -1200.00000000   -1200.00000000   -1200.00000000   -1200.00000000   -1200.00000000   -1200.00000000   -1200.00000000   -1200.00000000
     -1200.00000000   -1200.00000000   -1200.00000000   -1200.00000000   -1200.00000000   -1200.00000000   -1200.00000000   -1200.00000000   -1200.00000000   -1200.00000000   -1200.00000000   -1200.00000000   -1200.00000000   -1200.00000000   -1200.00000000   -1200.00000000   -1200.00000000   -1200.00000000   -1200.00000000   -1200.00000000
     -1200.00000000   -1200.00000000   -1200.00000000   -1200.00000000   -1200.00000000   -1200.00000000
  area
    INTERNAL  FACTOR  1.0
    6.37377439E+05  6.37377439E+05  6.37377439E+05  6.37377439E+05  6.37377439E+05  6.37377439E+05  6.37377439E+05  6.37377439E+05  6.37377439E+05  6.37377439E+05  6.37377439E+05  6.37377439E+05  6.37377439E+05  6.37377439E+05  6.37377439E+05  6.37377439E+05  6.37377439E+05  6.37377439E+05  6.37377439E+05  6.37377439E+05
    6.37377439E+05  6.37377439E+05  6.37377439E+05  6.37377439E+05  6.37377439E+05  6.37377439E+05  6.37377439E+05  6.37377439E+05  6.37377439E+05  6.37377439E+05  6.37377439E+05  6.37377439E+05  6.37377439E+05  6.37377439E+05  6.37377439E+05  6.37377439E+05  6.37377439E+05  6.37377439E+05  6.37377439E+05  6.37377439E+05
    6.37377439E+05  6.37377439E+05  6.37377439E+05  6.37377439E+05  6.37377439E+05  6.37377439E+05  6.37377439E+05  6.37377439E+05  6.37377439E+05  6.37377439E+05  6.37377439E+05  6.37377439E+05  6.37377439E+05  6.37377439E+05  6.37377439E+05  6.37377439E+05  6.37377439E+05  6.37377439E+05  6.37377439E+05  6.37377439E+05
    6.37377439E+05  6.37377439E+05  6.37377439E+05  6.37377439E+05  6.37377439E+05  6.37377439E+05  6.37377439E+05  6.37377439E+05  6.37377439E+05  6.37377439E+05  6.37377439E+05  6.37377439E+05  6.37377439E+05  6.37377439E+05  6.37377439E+05  6.37377439E+05  6.37377439E+05  6.37377439E+05  6.37377439E+05  6.37377439E+05
    6.37377439E+05  6.37377439E+05  6.37377439E+05  6.37377439E+05  6.37377439E+05  6.37377439E+05  6.37377439E+05  6.37377439E+05  6.37377439E+05  6.37377439E+05  6.37377439E+05  6.37377439E+05  6.37377439E+05  6.37377439E+05  6.37377439E+05  6.37377439E+05  6.37377439E+05  6.37377439E+05  6.37377439E+05  6.37377439E+05
    6.37377439E+05  6.37377439E+05  6.37377439E+05  6.37377439E+05  6.37377439E+05  6.37377439E+05  6.37377439E+05  6.37377439E+05  6.37377439E+05  6.37377439E+05  6.37377439E+05  6.37377439E+05  6.37377439E+05  6.37377439E+05  6.37377439E+05  6.37377439E+05  6.37377439E+05  6.37377439E+05  6.37377439E+05  6.37377439E+05
    6.37377439E+05  6.37377439E+05  6.37377439E+05  6.37377439E+05  6.37377439E+05  6.37377439E+05  6.37377439E+05  6.37377439E+05  6.37377439E+05  6.37377439E+05  6.37377439E+05  6.37377439E+05  6.37377439E+05  6.37377439E+05  6.37377439E+05  6.37377439E+05  6.37377439E+05  6.37377439E+05  6.37377439E+05  6.37377439E+05
    6.37377439E+05  6.37377439E+05  6.37377439E+05  6.37377439E+05  6.37377439E+05  6.37377439E+05  6.37377439E+05  6.37377439E+05  6.37377439E+05  6.37377439E+05  6.37377439E+05  6.37377439E+05  6.37377439E+05  6.37377439E+05  6.37377439E+05  6.37377439E+05  6.37377439E+05  6.37377439E+05  6.37377439E+05  6.37377439E+05
    6.37377439E+05  6.37377439E+05  6.37377439E+05  6.37377439E+05  6.37377439E+05  6.37377439E+05  6.37377439E+05  6.37377439E+05  6.37377439E+05  6.37377439E+05  6.37377439E+05  6.37377439E+05  6.37377439E+05  6.37377439E+05  6.37377439E+05  6.37377439E+05  6.37377439E+05  6.37377439E+05  6.37377439E+05  6.37377439E+05
    6.37377439E+05  6.37377439E+05  6.37377439E+05  6.37377439E+05  6.37377439E+05  6.37377439E+05  6.37377439E+05  6.37377439E+05  6.37377439E+05  6.37377439E+05  6.37377439E+05  6.37377439E+05  6.37377439E+05  6.37377439E+05  6.37377439E+05  6.37377439E+05  6.37377439E+05  6.37377439E+05  6.37377439E+05  6.37377439E+05
    6.37377439E+05  6.37377439E+05  6.37377439E+05  6.37377439E+05  6.37377439E+05  6.37377439E+05  6.37377439E+05  6.37377439E+05  6.37377439E+05  6.37377439E+05  6.37377439E+05  6.37377439E+05  6.37377439E+05  6.37377439E+05  6.37377439E+05  6.37377439E+05  6.37377439E+05  6.37377439E+05  6.37377439E+05  6.37377439E+05
    6.37377439E+05  6.37377439E+05  6.37377439E+05  6.37377439E+05  6.37377439E+05  6.37377439E+05  6.37377439E+05  6.37377439E+05  6.37377439E+05  6.37377439E+05  6.37377439E+05  6.37377439E+05  6.37377439E+05  6.37377439E+05  6.37377439E+05  6.37377439E+05  6.37377439E+05  6.37377439E+05  6.37377439E+05  6.37377439E+05
    6.37377439E+05  6.37377439E+05  6.37377439E+05  6.37377439E+05  6.37377439E+05  6.37377439E+05  6.37377439E+05  6.37377439E+05  6.37377439E+05  6.37377439E+05  6.37377439E+05  6.37377439E+05  6.37377439E+05  6.37377439E+05  6.37377439E+05  6.37377439E+05  6.37377439E+05  6.37377439E+05  6.37377439E+05  6.37377439E+05
    6.37377439E+05  6.37377439E+05  6.37377439E+05  6.37377439E+05  6.37377439E+05  6.37377439E+05  6.37377439E+05  6.37377439E+05  6.37377439E+05  6.37377439E+05  6.37377439E+05  6.37377439E+05  6.37377439E+05  6.37377439E+05  6.37377439E+05  6.37377439E+05  6.37377439E+05  6.37377439E+05  6.37377439E+05  6.37377439E+05
    6.37377439E+05  6.37377439E+05  6.37377439E+05  6.37377439E+05  6.37377439E+05  6.37377439E+05  6.37377439E+05  6.37377439E+05  6.37377439E+05  6.37377439E+05  6.37377439E+05  6.37377439E+05  6.37377439E+05  6.37377439E+05  6.37377439E+05  6.37377439E+05  6.37377439E+05  6.37377439E+05  6.37377439E+05  6.37377439E+05
    6.37377439E+05  6.37377439E+05  6.37377439E+05  6.37377439E+05  6.37377439E+05  6.37377439E+05  6.37377439E+05  6.37377439E+05  6.37377439E+05  6.37377439E+05  6.37377439E+05  6.37377439E+05  6.37377439E+05  6.37377439E+05  6.37377439E+05  6.37377439E+05  6.37377439E+05  6.37377439E+05  6.37377439E+05  6.37377439E+05
    6.37377439E+05  6.37377439E+05  6.37377439E+05  6.37377439E+05  6.37377439E+05  6.37377439E+05  6.37377439E+05  6.37377439E+05  6.37377439E+05  6.37377439E+05  6.37377439E+05  6.37377439E+05  6.37377439E+05  6.37377439E+05  6.37377439E+05  6.37377439E+05  6.37377439E+05  6.37377439E+05  6.37377439E+05  6.37377439E+05
    6.37377439E+05  6.37377439E+05  6.37377439E+05  6.37377439E+05  6.37377439E+05  6.37377439E+05  6.37377439E+05  6.37377439E+05  6.37377439E+05  6.37377439E+05  6.37377439E+05  6.37377439E+05  6.37377439E+05  6.37377439E+05  6.37377439E+05  6.37377439E+05  6.37377439E+05  6.37377439E+05  6.37377439E+05  6.37377439E+05
    6.37377439E+05  6.37377439E+05  6.37377439E+05  6.37377439E+05  6.37377439E+05  6.37377439E+05  6.37377439E+05  6.37377439E+05  6.37377439E+05  6.37377439E+05  6.37377439E+05  6.37377439E+05  6.37377439E+05  6.37377439E+05  6.37377439E+05  6.37377439E+05  6.37377439E+05  6.37377439E+05  6.37377439E+05  6.37377439E+05
    6.37377439E+05  6.37377439E+05  6.37377439E+05  6.37377439E+05  6.37377439E+05  6.37377439E+05  6.37377439E+05  6.37377439E+05  6.37377439E+05  6.37377439E+05  6.37377439E+05  6.37377439E+05  6.37377439E+05  6.37377439E+05  6.37377439E+05  6.37377439E+05  6.37377439E+05  6.37377439E+05  6.37377439E+05  6.37377439E+05
    6.37377439E+05  6.37377439E+05  6.37377439E+05  6.37377439E+05  6.37377439E+05  6.37377439E+05  6.37377439E+05  6.37377439E+05  6.37377439E+05  6.37377439E+05  6.37377439E+05  6.37377439E+05  6.37377439E+05  6.37377439E+05  6.37377439E+05  6.37377439E+05  6.37377439E+05  6.37377439E+05  6.37377439E+05  6.37377439E+05
    6.37377439E+05  6.37377439E+05  6.37377439E+05  6.37377439E+05  6.37377439E+05  6.37377439E+05  6.37377439E+05  6.37377439E+05  6.37377439E+05  6.37377439E+05  6.37377439E+05  6.37377439E+05  6.37377439E+05  6.37377439E+05  6.37377439E+05  6.37377439E+05  6.37377439E+05  6.37377439E+05  6.37377439E+05  6.37377439E+05
    6.37377439E+05  6.37377439E+05  6.37377439E+05  6.37377439E+05  6.37377439E+05  6.37377439E+05  6.37377439E+05  6.37377439E+05  6.37377439E+05  6.37377439E+05  6.37377439E+05  6.37377439E+05  6.37377439E+05  6.37377439E+05  6.37377439E+05  6.37377439E+05  6.37377439E+05  6.37377439E+05  6.37377439E+05  6.37377439E+05
    6.37377439E+05  6.37377439E+05  6.37377439E+05  6.37377439E+05  6.37377439E+05  6.37377439E+05  6.37377439E+05  6.37377439E+05  6.37377439E+05  6.37377439E+05  6.37377439E+05  6.37377439E+05  6.37377439E+05  6.37377439E+05  6.37377439E+05  6.37377439E+05  6.37377439E+05  6.37377439E+05  6.37377439E+05  6.37377439E+05
    6.37377439E+05  6.37377439E+05  6.37377439E+05  6.37377439E+05  6.37377439E+05  6.37377439E+05  6.37377439E+05  6.37377439E+05  6.37377439E+05  6.37377439E+05  6.37377439E+05  6.37377439E+05  6.37377439E+05  6.37377439E+05  6.37377439E+05  6.37377439E+05  6.37377439E+05  6.37377439E+05  6.37377439E+05  6.37377439E+05
    6.37377439E+05  6.37377439E+05  6.37377439E+05  6.37377439E+05  6.37377439E+05  6.37377439E+05  6.37377439E+05  6.37377439E+05  6.37377439E+05  6.37377439E+05  6.37377439E+05  6.37377439E+05  6.37377439E+05  6.37377439E+05  6.37377439E+05  6.37377439E+05  6.37377439E+05  6.37377439E+05  6.37377439E+05  6.37377439E+05
    6.37377439E+05  6.37377439E+05  6.37377439E+05  6.37377439E+05  6.37377439E+05  6.37377439E+05  6.37377439E+05  6.37377439E+05  6.37377439E+05  6.37377439E+05  6.37377439E+05  6.37377439E+05  6.37377439E+05  6.37377439E+05  6.37377439E+05  6.37377439E+05  6.37377439E+05  6.37377439E+05  6.37377439E+05  6.37377439E+05
    6.37377439E+05  6.37377439E+05  6.37377439E+05  6.37377439E+05  6.37377439E+05  6.37377439E+05
END griddata

BEGIN connectiondata
  iac
    INTERNAL  FACTOR  1
    3  4  4  4  4  4  4  4  4  4  4  4  4  4  4  4  4  4  4  4
    4  4  4  4  4  4  4  4  4  4  4  4  4  4  4  4  4  4  4  3
    4  5  5  5  5  5  5  5  5  5  5  5  5  5  5  5  5  5  5  5
    5  5  5  5  5  5  5  5  5  5  5  5  5  5  5  5  5  5  5  4
    4  5  5  5  5  5  5  5  5  5  5  5  5  5  5  5  5  5  5  5
    5  5  5  5  5  5  5  5  5  5  5  5  5  5  5  5  5  5  5  4
    4  5  5  5  5  5  5  5  6  5  5  5  5  5  5  5  5  5  5  5
    5  5  4  5  5  5  5  5  5  5  6  5  5  5  5  5  5  5  5  5
    5  5  5  5  4  5  5  5  5  5  5  5  6  5  5  5  5  5  5  5
    5  5  5  5  5  5  4  5  5  5  5  5  5  5  5  6  5  5  5  5
    5  5  5  5  5  5  5  5  7  5  5  5  5  5  5  5  5  5  5  5
    5  5  5  5  5  4  4  5  5  5  5  5  5  5  5  6  5  5  5  5
    5  5  5  5  5  5  5  6  6  5  5  5  5  5  5  5  5  5  5  5
    5  5  5  5  5  4  4  5  5  5  5  5  5  5  5  6  5  5  5  5
    5  5  5  5  5  5  5  5  6  5  5  5  5  5  5  5  5  5  5  5
    5  5  5  5  5  4  4  5  5  5  5  5  5  5  5  5  5  5  5  5
    5  5  5  5  5  6  5  5  5  5  5  5  5  5  5  5  5  5  5  5
    5  5  5  5  5  4  4  5  5  5  5  5  5  5  5  5  5  5  5  5
    5  5  5  5  5  6  6  5  5  5  5  5  5  5  5  5  5  5  5  5
    5  5  5  5  5  4  4  5  5  5  5  5  5  5  5  5  5  5  5  5
    5  5  5  5  5  6  6  5  5  5  5  5  5  5  5  5  5  5  5  5
    5  5  5  5  5  4  4  5  5  5  5  5  5  5  5  5  5  5  5  5
    5  5  5  5  5  6  6  5  5  5  5  5  5  5  5  5  5  5  5  5
    5  5  5  5  5  4  4  5  5  5  5  5  5  5  5  5  5  5  5  5
    5  5  5  5  5  6  6  5  5  5  5  5  5  5  5  5  5  5  5  5
    5  5  5  5  5  4  3  4  4  4  4  4  4  4  4  4  4  4  4  4
    4  4  4  4  4  4  5  4  4  4  4  4  4  4  4  4  4  4  4  4
    4  4  4  4  4  3
  ja
    INTERNAL  FACTOR  1
    1  2  41
    2  1  3  42
    3  2  4  43
    4  3  5  44
    5  4  6  45
    6  5  7  46
    7  6  8  47
    8  7  9  48
    9  8  10  49
    10  9  11  50
    11  10  12  51
    12  11  13  52
    13  12  14  53
    14  13  15  54
    15  14  16  55
    16  15  17  56
    17  16  18  57