# File generated by Flopy version 3.8.2 on 04/10/2025 at 10:55:38.
BEGIN options
  PRINT_INPUT
END options

BEGIN continuous  FILEOUT  steadymodel_observations.csv
END continuous  FILEOUT  steadymodel_observations.csv

