# File generated by Flopy version 3.8.2 on 02/18/2025 at 17:59:33.
BEGIN options
  PRINT_INPUT
  PRINT_FLOWS
  SAVE_FLOWS
END options

BEGIN dimensions
  MAXBOUND  4
END dimensions

BEGIN period  1
  226 -1.00000000E+03
  1563 -1.00000000E+03
  69 -1.00000000E+03
  1406 -1.00000000E+03
END period  1

