# File generated by Flopy version 3.8.2 on 02/18/2025 at 18:21:50.
BEGIN options
END options

BEGIN dimensions
  MAXBOUND  1337
END dimensions

BEGIN period  1
  1 2.73972603E-07
  1 2.73972603E-07
  1 2.73972603E-07
  1 2.73972603E-07
  1 2.73972603E-07
  1 2.73972603E-07
  1 2.73972603E-07
  1 2.73972603E-07
  1 2.73972603E-07
  1 2.73972603E-07
  1 2.73972603E-07
  1 2.73972603E-07
  1 2.73972603E-07
  1 2.73972603E-07
  1 2.73972603E-07
  1 2.73972603E-07
  1 2.73972603E-07
  1 2.73972603E-07
  1 2.73972603E-07
  1 2.73972603E-07
  1 2.73972603E-07
  1 2.73972603E-07
  1 2.73972603E-07
  1 2.73972603E-07
  1 2.73972603E-07
  1 2.73972603E-07
  1 2.73972603E-07
  1 2.73972603E-07
  1 2.73972603E-07
  1 2.73972603E-07
  1 2.73972603E-07
  1 2.73972603E-07
  1 2.73972603E-07
  1 2.73972603E-07
  1 2.73972603E-07
  1 2.73972603E-07
  1 2.73972603E-07
  1 2.73972603E-07
  1 2.73972603E-07
  1 2.73972603E-07
  1 2.73972603E-07
  1 2.73972603E-07
  1 2.73972603E-07
  1 2.73972603E-07
  1 2.73972603E-07
  1 2.73972603E-07
  1 2.73972603E-07
  1 2.73972603E-07
  1 2.73972603E-07
  1 2.73972603E-07
  1 2.73972603E-07
  1 2.73972603E-07
  1 2.73972603E-07
  1 2.73972603E-07
  1 2.73972603E-07
  1 2.73972603E-07
  1 2.73972603E-07
  1 2.73972603E-07
  1 2.73972603E-07
  1 2.73972603E-07
  1 2.73972603E-07
  1 2.73972603E-07
  1 2.73972603E-07
  1 2.73972603E-07
  1 2.73972603E-07
  1 2.73972603E-07
  1 2.73972603E-07
  1 2.73972603E-07
  1 2.73972603E-07
  1 2.73972603E-07
  1 2.73972603E-07
  1 2.73972603E-07
  1 2.73972603E-07
  1 2.73972603E-07
  1 2.73972603E-07
  1 2.73972603E-07
  1 2.73972603E-07
  1 2.73972603E-07
  1 2.73972603E-07
  1 2.73972603E-07
  1 2.73972603E-07
  1 2.73972603E-07
  1 2.73972603E-07
  1 2.73972603E-07
  1 2.73972603E-07
  1 2.73972603E-07
  1 2.73972603E-07
  1 2.73972603E-07
  1 2.73972603E-07
  1 2.73972603E-07
  1 2.73972603E-07
  1 2.73972603E-07
  1 2.73972603E-07
  1 2.73972603E-07
  1 2.73972603E-07
  1 2.73972603E-07
  1 2.73972603E-07
  1 2.73972603E-07
  1 2.73972603E-07
  1 2.73972603E-07
  1 2.73972603E-07
  1 2.73972603E-07
  1 2.73972603E-07
  1 2.73972603E-07
  1 2.73972603E-07
  1 2.73972603E-07
  1 2.73972603E-07
  1 2.73972603E-07
  1 2.73972603E-07
  1 2.73972603E-07
  1 2.73972603E-07
  1 2.73972603E-07
  1 2.73972603E-07
  1 2.73972603E-07
  1 2.73972603E-07
  1 2.73972603E-07
  1 2.73972603E-07
  1 2.73972603E-07
  1 2.73972603E-07
  1 2.73972603E-07
  1 2.73972603E-07
  1 2.73972603E-07
  1 2.73972603E-07
  1 2.73972603E-07
  1 2.73972603E-07
  1 2.73972603E-07
  1 2.73972603E-07
  1 2.73972603E-07
  1 2.73972603E-07
  1 2.73972603E-07
  1 2.73972603E-07
  1 2.73972603E-07
  1 2.73972603E-07
  1 2.73972603E-07
  1 2.73972603E-07
  1 2.73972603E-07
  1 2.73972603E-07
  1 2.73972603E-07
  1 2.73972603E-07
  1 2.73972603E-07
  1 2.73972603E-07
  1 2.73972603E-07
  1 2.73972603E-07
  1 2.73972603E-07
  1 2.73972603E-07
  1 2.73972603E-07
  1 2.73972603E-07
  1 2.73972603E-07
  1 2.73972603E-07
  1 2.73972603E-07
  1 2.73972603E-07
  1 2.73972603E-07
  1 2.73972603E-07
  1 2.73972603E-07
  1 2.73972603E-07
  1 2.73972603E-07
  1 2.73972603E-07
  1 2.73972603E-07
  1 2.73972603E-07
  1 2.73972603E-07
  1 2.73972603E-07
  1 2.73972603E-07
  1 2.73972603E-07
  1 2.73972603E-07
  1 2.73972603E-07
  1 2.73972603E-07
  1 2.73972603E-07
  1 2.73972603E-07
  1 2.73972603E-07
  1 2.73972603E-07
  1 2.73972603E-07
  1 2.73972603E-07
  1 2.73972603E-07
  1 2.73972603E-07
  1 2.73972603E-07
  1 2.73972603E-07
  1 2.73972603E-07
  1 2.73972603E-07
  1 2.73972603E-07
  1 2.73972603E-07
  1 2.73972603E-07
  1 2.73972603E-07
  1 2.73972603E-07
  1 2.73972603E-07
  1 2.73972603E-07
  1 2.73972603E-07
  1 2.73972603E-07
  1 2.73972603E-07
  1 2.73972603E-07
  1 2.73972603E-07
  1 2.73972603E-07
  1 2.73972603E-07
  1 2.73972603E-07
  1 2.73972603E-07
  1 2.73972603E-07
  1 2.73972603E-07
  1 2.73972603E-07
  1 2.73972603E-07
  1 2.73972603E-07
  1 2.73972603E-07
  1 2.73972603E-07
  1 2.73972603E-07
  1 2.73972603E-07
  1 2.73972603E-07
  1 2.73972603E-07
  1 2.73972603E-07
  1 2.73972603E-07
  1 2.73972603E-07
  1 2.73972603E-07
  1 2.73972603E-07
  1 2.73972603E-07
  1 2.73972603E-07
  1 2.73972603E-07
  1 2.73972603E-07
  1 2.73972603E-07
  1 2.73972603E-07
  1 2.73972603E-07
  1 2.73972603E-07
  1 2.73972603E-07
  1 2.73972603E-07
  1 2.73972603E-07
  1 2.73972603E-07
  1 2.73972603E-07
  1 2.73972603E-07
  1 2.73972603E-07
  1 2.73972603E-07
  1 2.73972603E-07
  1 2.73972603E-07
  1 2.73972603E-07
  1 2.73972603E-07
  1 2.73972603E-07
  1 2.73972603E-07
  1 2.73972603E-07
  1 2.73972603E-07
  1 2.73972603E-07
  1 2.73972603E-07
  1 2.73972603E-07
  1 2.73972603E-07
  1 2.73972603E-07
  1 2.73972603E-07
  1 2.73972603E-07
  1 2.73972603E-07
  1 2.73972603E-07
  1 2.73972603E-07
  1 2.73972603E-07
  1 2.73972603E-07
  1 2.73972603E-07
  1 2.73972603E-07
  1 2.73972603E-07
  1 2.73972603E-07
  1 2.73972603E-07
  1 2.73972603E-07
  1 2.73972603E-07
  1 2.73972603E-07
  1 2.73972603E-07
  1 2.73972603E-07
  1 2.73972603E-07
  1 2.73972603E-07
  1 2.73972603E-07
  1 2.73972603E-07
  1 2.73972603E-07
  1 2.73972603E-07
  1 2.73972603E-07
  1 2.73972603E-07
  1 2.73972603E-07
  1 2.73972603E-07
  1 2.73972603E-07
  1 2.73972603E-07
  1 2.73972603E-07
  1 2.73972603E-07
  1 2.73972603E-07
  1 2.73972603E-07
  1 2.73972603E-07
  1 2.73972603E-07
  1 2.73972603E-07
  1 2.73972603E-07
  1 2.73972603E-07
  1 2.73972603E-07
  1 2.73972603E-07
  1 2.73972603E-07
  1 2.73972603E-07
  1 2.73972603E-07
  1 2.73972603E-07
  1 2.73972603E-07
  1 2.73972603E-07
  1 2.73972603E-07
  1 2.73972603E-07
  1 2.73972603E-07
  1 2.73972603E-07
  1 2.73972603E-07
  1 2.73972603E-07
  1 2.73972603E-07
  1 2.73972603E-07
  1 2.73972603E-07
  1 2.73972603E-07
  1 2.73972603E-07
  1 2.73972603E-07
  1 2.73972603E-07
  1 2.73972603E-07
  1 2.73972603E-07
  1 2.73972603E-07
  1 2.73972603E-07
  1 2.73972603E-07
  1 2.73972603E-07
  1 2.73972603E-07
  1 2.73972603E-07
  1 2.73972603E-07
  1 2.73972603E-07
  1 2.73972603E-07
  1 2.73972603E-07
  1 2.73972603E-07
  1 2.73972603E-07
  1 2.73972603E-07
  1 2.73972603E-07
  1 2.73972603E-07
  1 2.73972603E-07
  1 2.73972603E-07
  1 2.73972603E-07
  1 2.73972603E-07
  1 2.73972603E-07
  1 2.73972603E-07
  1 2.73972603E-07
  1 2.73972603E-07
  1 2.73972603E-07
  1 2.73972603E-07
  1 2.73972603E-07
  1 2.73972603E-07
  1 2.73972603E-07
  1 2.73972603E-07
  1 2.73972603E-07
  1 2.73972603E-07
  1 2.73972603E-07
  1 2.73972603E-07
  1 2.73972603E-07
  1 2.73972603E-07
  1 2.73972603E-07
  1 2.73972603E-07
  1 2.73972603E-07
  1 2.73972603E-07
  1 2.73972603E-07
  1 2.73972603E-07
  1 2.73972603E-07
  1 2.73972603E-07
  1 2.73972603E-07
  1 2.73972603E-07
  1 2.73972603E-07
  1 2.73972603E-07
  1 2.73972603E-07
  1 2.73972603E-07
  1 2.73972603E-07
  1 2.73972603E-07
  1 2.73972603E-07
  1 2.73972603E-07
  1 2.73972603E-07
  1 2.73972603E-07
  1 2.73972603E-07
  1 2.73972603E-07
  1 2.73972603E-07
  1 2.73972603E-07
  1 2.73972603E-07
  1 2.73972603E-07
  1 2.73972603E-07
  1 2.73972603E-07
  1 2.73972603E-07
  1 2.73972603E-07
  1 2.73972603E-07
  1 2.73972603E-07
  1 2.73972603E-07
  1 2.73972603E-07
  1 2.73972603E-07
  1 2.73972603E-07
  1 2.73972603E-07
  1 2.73972603E-07
  1 2.73972603E-07
  1 2.73972603E-07
  1 2.73972603E-07
  1 2.73972603E-07
  1 2.73972603E-07
  1 2.73972603E-07
  1 2.73972603E-07
  1 2.73972603E-07
  1 2.73972603E-07
  1 2.73972603E-07
  1 2.73972603E-07
  1 2.73972603E-07
  1 2.73972603E-07
  1 2.73972603E-07
  1 2.73972603E-07
  1 2.73972603E-07
  1 2.73972603E-07
  1 2.73972603E-07
  1 2.73972603E-07
  1 2.73972603E-07
  1 2.73972603E-07
  1 2.73972603E-07
  1 2.73972603E-07
  1 2.73972603E-07
  1 2.73972603E-07
  1 2.73972603E-07
  1 2.73972603E-07
  1 2.73972603E-07
  1 2.73972603E-07
  1 2.73972603E-07
  1 2.73972603E-07
  1 2.73972603E-07
  1 2.73972603E-07
  1 2.73972603E-07
  1 2.73972603E-07
  1 2.73972603E-07
  1 2.73972603E-07
  1 2.73972603E-07
  1 2.73972603E-07
  1 2.73972603E-07
  1 2.73972603E-07
  1 2.73972603E-07
  1 2.73972603E-07
  1 2.73972603E-07
  1 2.73972603E-07
  1 2.73972603E-07
  1 2.73972603E-07
  1 2.73972603E-07
  1 2.73972603E-07
  1 2.73972603E-07
  1 2.73972603E-07
  1 2.73972603E-07
  1 2.73972603E-07
  1 2.73972603E-07
  1 2.73972603E-07
  1 2.73972603E-07
  1 2.73972603E-07
  1 2.73972603E-07
  1 2.73972603E-07
  1 2.73972603E-07
  1 2.73972603E-07
  1 2.73972603E-07
  1 2.73972603E-07
  1 2.73972603E-07
  1 2.73972603E-07
  1 2.73972603E-07
  1 2.73972603E-07
  1 2.73972603E-07
  1 2.73972603E-07
  1 2.73972603E-07
  1 2.73972603E-07
  1 2.73972603E-07
  1 2.73972603E-07
  1 2.73972603E-07
  1 2.73972603E-07
  1 2.73972603E-07
  1 2.73972603E-07
  1 2.73972603E-07
  1 2.73972603E-07
  1 2.73972603E-07
  1 2.73972603E-07
  1 2.73972603E-07
  1 2.73972603E-07
  1 2.73972603E-07
  1 2.73972603E-07
  1 2.73972603E-07
  1 2.73972603E-07
  1 2.73972603E-07
  1 2.73972603E-07
  1 2.73972603E-07
  1 2.73972603E-07
  1 2.73972603E-07
  1 2.73972603E-07
  1 2.73972603E-07
  1 2.73972603E-07
  1 2.73972603E-07
  1 2.73972603E-07
  1 2.73972603E-07
  1 2.73972603E-07
  1 2.73972603E-07
  1 2.73972603E-07
  1 2.73972603E-07
  1 2.73972603E-07
  1 2.73972603E-07
  1 2.73972603E-07
  1 2.73972603E-07
  1 2.73972603E-07
  1 2.73972603E-07
  1 2.73972603E-07
  1 2.73972603E-07
  1 2.73972603E-07
  1 2.73972603E-07
  1 2.73972603E-07
  1 2.73972603E-07
  1 2.73972603E-07
  1 2.73972603E-07
  1 2.73972603E-07
  1 2.73972603E-07
  1 2.73972603E-07
  1 2.73972603E-07
  1 2.73972603E-07
  1 2.73972603E-07
  1 2.73972603E-07
  1 2.73972603E-07
  1 2.73972603E-07
  1 2.73972603E-07
  1 2.73972603E-07
  1 2.73972603E-07
  1 2.73972603E-07
  1 2.73972603E-07
  1 2.73972603E-07
  1 2.73972603E-07
  1 2.73972603E-07
  1 2.73972603E-07
  1 2.73972603E-07
  1 2.73972603E-07
  1 2.73972603E-07
  1 2.73972603E-07
  1 2.73972603E-07
  1 2.73972603E-07
  1 2.73972603E-07
  1 2.73972603E-07
  1 2.73972603E-07
  1 2.73972603E-07
  1 2.73972603E-07
  1 2.73972603E-07
  1 2.73972603E-07
  1 2.73972603E-07
  1 2.73972603E-07
  1 2.73972603E-07
  1 2.73972603E-07
  1 2.73972603E-07
  1 2.73972603E-07
  1 2.73972603E-07
  1 2.73972603E-07
  1 2.73972603E-07
  1 2.73972603E-07
  1 2.73972603E-07
  1 2.73972603E-07
  1 2.73972603E-07
  1 2.73972603E-07
  1 2.73972603E-07
  1 2.73972603E-07
  1 2.73972603E-07
  1 2.73972603E-07
  1 2.73972603E-07
  1 2.73972603E-07
  1 2.73972603E-07
  1 2.73972603E-07
  1 2.73972603E-07
  1 2.73972603E-07
  1 2.73972603E-07
  1 2.73972603E-07
  1 2.73972603E-07
  1 2.73972603E-07
  1 2.73972603E-07
  1 2.73972603E-07
  1 2.73972603E-07
  1 2.73972603E-07
  1 2.73972603E-07
  1 2.73972603E-07
  1 2.73972603E-07
  1 2.73972603E-07
  1 2.73972603E-07
  1 2.73972603E-07
  1 2.73972603E-07
  1 2.73972603E-07
  1 2.73972603E-07
  1 2.73972603E-07
  1 2.73972603E-07
  1 2.73972603E-07
  1 2.73972603E-07
  1 2.73972603E-07
  1 2.73972603E-07
  1 2.73972603E-07
  1 2.73972603E-07
  1 2.73972603E-07
  1 2.73972603E-07
  1 2.73972603E-07
  1 2.73972603E-07
  1 2.73972603E-07
  1 2.73972603E-07
  1 2.73972603E-07
  1 2.73972603E-07
  1 2.73972603E-07
  1 2.73972603E-07
  1 2.73972603E-07
  1 2.73972603E-07
  1 2.73972603E-07
  1 2.73972603E-07
  1 2.73972603E-07
  1 2.73972603E-07
  1 2.73972603E-07
  1 2.73972603E-07
  1 2.73972603E-07
  1 2.73972603E-07
  1 2.73972603E-07
  1 2.73972603E-07
  1 2.73972603E-07
  1 2.73972603E-07
  1 2.73972603E-07
  1 2.73972603E-07
  1 2.73972603E-07
  1 2.73972603E-07
  1 2.73972603E-07
  1 2.73972603E-07
  1 2.73972603E-07
  1 2.73972603E-07
  1 2.73972603E-07
  1 2.73972603E-07
  1 2.73972603E-07
  1 2.73972603E-07
  1 2.73972603E-07
  1 2.73972603E-07
  1 2.73972603E-07
  1 2.73972603E-07
  1 2.73972603E-07
  1 2.73972603E-07
  1 2.73972603E-07
  1 2.73972603E-07
  1 2.73972603E-07
  1 2.73972603E-07
  1 2.73972603E-07
  1 2.73972603E-07
  1 2.73972603E-07
  1 2.73972603E-07
  1 2.73972603E-07
  1 2.73972603E-07
  1 2.73972603E-07
  1 2.73972603E-07
  1 2.73972603E-07
  1 2.73972603E-07
  1 2.73972603E-07
  1 2.73972603E-07
  1 2.73972603E-07
  1 2.73972603E-07
  1 2.73972603E-07
  1 2.73972603E-07
  1 2.73972603E-07
  1 2.73972603E-07
  1 2.73972603E-07
  1 2.73972603E-07
  1 2.73972603E-07
  1 2.73972603E-07
  1 2.73972603E-07
  1 2.73972603E-07
  1 2.73972603E-07
  1 2.73972603E-07
  1 2.73972603E-07
  1 2.73972603E-07
  1 2.73972603E-07
  1 2.73972603E-07
  1 2.73972603E-07
  1 2.73972603E-07
  1 2.73972603E-07
  1 2.73972603E-07
  1 2.73972603E-07
  1 2.73972603E-07
  1 2.73972603E-07
  1 2.73972603E-07
  1 2.73972603E-07
  1 2.73972603E-07
  1 2.73972603E-07
  1 2.73972603E-07
  1 2.73972603E-07
  1 2.73972603E-07
  1 2.73972603E-07
  1 2.73972603E-07
  1 2.73972603E-07
  1 2.73972603E-07
  1 2.73972603E-07
  1 2.73972603E-07
  1 2.73972603E-07
  1 2.73972603E-07
  1 2.73972603E-07
  1 2.73972603E-07
  1 2.73972603E-07
  1 2.73972603E-07
  1 2.73972603E-07
  1 2.73972603E-07
  1 2.73972603E-07
  1 2.73972603E-07
  1 2.73972603E-07
  1 2.73972603E-07
  1 2.73972603E-07
  1 2.73972603E-07
  1 2.73972603E-07
  1 2.73972603E-07
  1 2.73972603E-07
  1 2.73972603E-07
  1 2.73972603E-07
  1 2.73972603E-07
  1 2.73972603E-07
  1 2.73972603E-07
  1 2.73972603E-07
  1 2.73972603E-07
  1 2.73972603E-07
  1 2.73972603E-07
  1 2.73972603E-07
  1 2.73972603E-07
  1 2.73972603E-07
  1 2.73972603E-07
  1 2.73972603E-07
  1 2.73972603E-07
  1 2.73972603E-07
  1 2.73972603E-07
  1 2.73972603E-07
  1 2.73972603E-07
  1 2.73972603E-07
  1 2.73972603E-07
  1 2.73972603E-07
  1 2.73972603E-07
  1 2.73972603E-07
  1 2.73972603E-07
  1 2.73972603E-07
  1 2.73972603E-07
  1 2.73972603E-07
  1 2.73972603E-07
  1 2.73972603E-07
  1 2.73972603E-07
  1 2.73972603E-07
  1 2.73972603E-07
  1 2.73972603E-07
  1 2.73972603E-07
  1 2.73972603E-07
  1 2.73972603E-07
  1 2.73972603E-07
  1 2.73972603E-07
  1 2.73972603E-07
  1 2.73972603E-07
  1 2.73972603E-07
  1 2.73972603E-07
  1 2.73972603E-07
  1 2.73972603E-07
  1 2.73972603E-07
  1 2.73972603E-07
  1 2.73972603E-07
  1 2.73972603E-07
  1 2.73972603E-07
  1 2.73972603E-07
  1 2.73972603E-07
  1 2.73972603E-07
  1 2.73972603E-07
  1 2.73972603E-07
  1 2.73972603E-07
  1 2.73972603E-07
  1 2.73972603E-07
  1 2.73972603E-07
  1 2.73972603E-07
  1 2.73972603E-07
  1 2.73972603E-07
  1 2.73972603E-07
  1 2.73972603E-07
  1 2.73972603E-07
  1 2.73972603E-07
  1 2.73972603E-07
  1 2.73972603E-07
  1 2.73972603E-07
  1 2.73972603E-07
  1 2.73972603E-07
  1 2.73972603E-07
  1 2.73972603E-07
  1 2.73972603E-07
  1 2.73972603E-07
  1 2.73972603E-07
  1 2.73972603E-07
  1 2.73972603E-07
  1 2.73972603E-07
  1 2.73972603E-07
  1 2.73972603E-07
  1 2.73972603E-07
  1 2.73972603E-07
  1 2.73972603E-07
  1 2.73972603E-07
  1 2.73972603E-07
  1 2.73972603E-07
  1 2.73972603E-07
  1 2.73972603E-07
  1 2.73972603E-07
  1 2.73972603E-07
  1 2.73972603E-07
  1 2.73972603E-07
  1 2.73972603E-07
  1 2.73972603E-07
  1 2.73972603E-07
  1 2.73972603E-07
  1 2.73972603E-07
  1 2.73972603E-07
  1 2.73972603E-07
  1 2.73972603E-07
  1 2.73972603E-07
  1 2.73972603E-07
  1 2.73972603E-07
  1 2.73972603E-07
  1 2.73972603E-07
  1 2.73972603E-07
  1 2.73972603E-07
  1 2.73972603E-07
  1 2.73972603E-07
  1 2.73972603E-07
  1 2.73972603E-07
  1 2.73972603E-07
  1 2.73972603E-07
  1 2.73972603E-07
  1 2.73972603E-07
  1 2.73972603E-07
  1 2.73972603E-07
  1 2.73972603E-07
  1 2.73972603E-07
  1 2.73972603E-07
  1 2.73972603E-07
  1 2.73972603E-07
  1 2.73972603E-07
  1 2.73972603E-07
  1 2.73972603E-07
  1 2.73972603E-07
  1 2.73972603E-07
  1 2.73972603E-07
  1 2.73972603E-07
  1 2.73972603E-07
  1 2.73972603E-07
  1 2.73972603E-07
  1 2.73972603E-07
  1 2.73972603E-07
  1 2.73972603E-07
  1 2.73972603E-07
  1 2.73972603E-07
  1 2.73972603E-07
  1 2.73972603E-07
  1 2.73972603E-07
  1 2.73972603E-07
  1 2.73972603E-07
  1 2.73972603E-07
  1 2.73972603E-07
  1 2.73972603E-07
  1 2.73972603E-07
  1 2.73972603E-07
  1 2.73972603E-07
  1 2.73972603E-07
  1 2.73972603E-07
  1 2.73972603E-07
  1 2.73972603E-07
  1 2.73972603E-07
  1 2.73972603E-07
  1 2.73972603E-07
  1 2.73972603E-07
  1 2.73972603E-07
  1 2.73972603E-07
  1 2.73972603E-07
  1 2.73972603E-07
  1 2.73972603E-07
  1 2.73972603E-07
  1 2.73972603E-07
  1 2.73972603E-07
  1 2.73972603E-07
  1 2.73972603E-07
  1 2.73972603E-07
  1 2.73972603E-07
  1 2.73972603E-07
  1 2.73972603E-07
  1 2.73972603E-07
  1 2.73972603E-07
  1 2.73972603E-07
  1 2.73972603E-07
  1 2.73972603E-07
  1 2.73972603E-07
  1 2.73972603E-07
  1 2.73972603E-07
  1 2.73972603E-07
  1 2.73972603E-07
  1 2.73972603E-07
  1 2.73972603E-07
  1 2.73972603E-07
  1 2.73972603E-07
  1 2.73972603E-07
  1 2.73972603E-07
  1 2.73972603E-07
  1 2.73972603E-07
  1 2.73972603E-07
  1 2.73972603E-07
  1 2.73972603E-07
  1 2.73972603E-07
  1 2.73972603E-07
  1 2.73972603E-07
  1 2.73972603E-07
  1 2.73972603E-07
  1 2.73972603E-07
  1 2.73972603E-07
  1 2.73972603E-07
  1 2.73972603E-07
  1 2.73972603E-07
  1 2.73972603E-07
  1 2.73972603E-07
  1 2.73972603E-07
  1 2.73972603E-07
  1 2.73972603E-07
  1 2.73972603E-07
  1 2.73972603E-07
  1 2.73972603E-07
  1 2.73972603E-07
  1 2.73972603E-07
  1 2.73972603E-07
  1 2.73972603E-07
  1 2.73972603E-07
  1 2.73972603E-07
  1 2.73972603E-07
  1 2.73972603E-07
  1 2.73972603E-07
  1 2.73972603E-07
  1 2.73972603E-07
  1 2.73972603E-07
  1 2.73972603E-07
  1 2.73972603E-07
  1 2.73972603E-07
  1 2.73972603E-07
  1 2.73972603E-07
  1 2.73972603E-07
  1 2.73972603E-07
  1 2.73972603E-07
  1 2.73972603E-07
  1 2.73972603E-07
  1 2.73972603E-07
  1 2.73972603E-07
  1 2.73972603E-07
  1 2.73972603E-07
  1 2.73972603E-07
  1 2.73972603E-07
  1 2.73972603E-07
  1 2.73972603E-07
  1 2.73972603E-07
  1 2.73972603E-07
  1 2.73972603E-07
  1 2.73972603E-07
  1 2.73972603E-07
  1 2.73972603E-07
  1 2.73972603E-07
  1 2.73972603E-07
  1 2.73972603E-07
  1 2.73972603E-07
  1 2.73972603E-07
  1 2.73972603E-07
  1 2.73972603E-07
  1 2.73972603E-07
  1 2.73972603E-07
  1 2.73972603E-07
  1 2.73972603E-07
  1 2.73972603E-07
  1 2.73972603E-07
  1 2.73972603E-07
  1 2.73972603E-07
  1 2.73972603E-07
  1 2.73972603E-07
  1 2.73972603E-07
  1 2.73972603E-07
  1 2.73972603E-07
  1 2.73972603E-07
  1 2.73972603E-07
  1 2.73972603E-07
  1 2.73972603E-07
  1 2.73972603E-07
  1 2.73972603E-07
  1 2.73972603E-07
  1 2.73972603E-07
  1 2.73972603E-07
  1 2.73972603E-07
  1 2.73972603E-07
  1 2.73972603E-07
  1 2.73972603E-07
  1 2.73972603E-07
  1 2.73972603E-07
  1 2.73972603E-07
  1 2.73972603E-07
  1 2.73972603E-07
  1 2.73972603E-07
  1 2.73972603E-07
  1 2.73972603E-07
  1 2.73972603E-07
  1 2.73972603E-07
  1 2.73972603E-07
  1 2.73972603E-07
  1 2.73972603E-07
  1 2.73972603E-07
  1 2.73972603E-07
  1 2.73972603E-07
  1 2.73972603E-07
  1 2.73972603E-07
  1 2.73972603E-07
  1 2.73972603E-07
  1 2.73972603E-07
  1 2.73972603E-07
  1 2.73972603E-07
  1 2.73972603E-07
  1 2.73972603E-07
  1 2.73972603E-07
  1 2.73972603E-07
  1 2.73972603E-07
  1 2.73972603E-07
  1 2.73972603E-07
  1 2.73972603E-07
  1 2.73972603E-07
  1 2.73972603E-07
  1 2.73972603E-07
  1 2.73972603E-07
  1 2.73972603E-07
  1 2.73972603E-07
  1 2.73972603E-07
  1 2.73972603E-07
  1 2.73972603E-07
  1 2.73972603E-07
  1 2.73972603E-07
  1 2.73972603E-07
  1 2.73972603E-07
  1 2.73972603E-07
  1 2.73972603E-07
  1 2.73972603E-07
  1 2.73972603E-07
  1 2.73972603E-07
  1 2.73972603E-07
  1 2.73972603E-07
  1 2.73972603E-07
  1 2.73972603E-07
  1 2.73972603E-07
  1 2.73972603E-07
  1 2.73972603E-07
  1 2.73972603E-07
  1 2.73972603E-07
  1 2.73972603E-07
  1 2.73972603E-07
  1 2.73972603E-07
  1 2.73972603E-07
  1 2.73972603E-07
  1 2.73972603E-07
  1 2.73972603E-07
  1 2.73972603E-07
  1 2.73972603E-07
  1 2.73972603E-07
  1 2.73972603E-07
  1 2.73972603E-07
  1 2.73972603E-07
  1 2.73972603E-07
  1 2.73972603E-07
  1 2.73972603E-07
  1 2.73972603E-07
  1 2.73972603E-07
  1 2.73972603E-07
  1 2.73972603E-07
  1 2.73972603E-07
  1 2.73972603E-07
  1 2.73972603E-07
  1 2.73972603E-07
  1 2.73972603E-07
  1 2.73972603E-07
  1 2.73972603E-07
  1 2.73972603E-07
  1 2.73972603E-07
  1 2.73972603E-07
  1 2.73972603E-07
  1 2.73972603E-07
  1 2.73972603E-07
  1 2.73972603E-07
  1 2.73972603E-07
  1 2.73972603E-07
  1 2.73972603E-07
  1 2.73972603E-07
  1 2.73972603E-07
  1 2.73972603E-07
  1 2.73972603E-07
  1 2.73972603E-07
  1 2.73972603E-07
  1 2.73972603E-07
  1 2.73972603E-07
  1 2.73972603E-07
  1 2.73972603E-07
  1 2.73972603E-07
  1 2.73972603E-07
  1 2.73972603E-07
  1 2.73972603E-07
  1 2.73972603E-07
  1 2.73972603E-07
  1 2.73972603E-07
  1 2.73972603E-07
  1 2.73972603E-07
  1 2.73972603E-07
  1 2.73972603E-07
  1 2.73972603E-07
  1 2.73972603E-07
  1 2.73972603E-07
  1 2.73972603E-07
  1 2.73972603E-07
  1 2.73972603E-07
  1 2.73972603E-07
  1 2.73972603E-07
  1 2.73972603E-07
  1 2.73972603E-07
  1 2.73972603E-07
  1 2.73972603E-07
  1 2.73972603E-07
  1 2.73972603E-07
  1 2.73972603E-07
  1 2.73972603E-07
  1 2.73972603E-07
  1 2.73972603E-07
  1 2.73972603E-07
  1 2.73972603E-07
  1 2.73972603E-07
  1 2.73972603E-07
  1 2.73972603E-07
  1 2.73972603E-07
  1 2.73972603E-07
  1 2.73972603E-07
  1 2.73972603E-07
  1 2.73972603E-07
  1 2.73972603E-07
  1 2.73972603E-07
  1 2.73972603E-07
  1 2.73972603E-07
  1 2.73972603E-07
  1 2.73972603E-07
  1 2.73972603E-07
  1 2.73972603E-07
  1 2.73972603E-07
  1 2.73972603E-07
  1 2.73972603E-07
  1 2.73972603E-07
  1 2.73972603E-07
  1 2.73972603E-07
  1 2.73972603E-07
  1 2.73972603E-07
  1 2.73972603E-07
  1 2.73972603E-07
  1 2.73972603E-07
  1 2.73972603E-07
  1 2.73972603E-07
  1 2.73972603E-07
  1 2.73972603E-07
  1 2.73972603E-07
  1 2.73972603E-07
  1 2.73972603E-07
  1 2.73972603E-07
  1 2.73972603E-07
  1 2.73972603E-07
  1 2.73972603E-07
  1 2.73972603E-07
  1 2.73972603E-07
  1 2.73972603E-07
  1 2.73972603E-07
  1 2.73972603E-07
  1 2.73972603E-07
  1 2.73972603E-07
  1 2.73972603E-07
  1 2.73972603E-07
  1 2.73972603E-07
  1 2.73972603E-07
  1 2.73972603E-07
  1 2.73972603E-07
  1 2.73972603E-07
  1 2.73972603E-07
  1 2.73972603E-07
  1 2.73972603E-07
  1 2.73972603E-07
  1 2.73972603E-07
  1 2.73972603E-07
  1 2.73972603E-07
  1 2.73972603E-07
  1 2.73972603E-07
  1 2.73972603E-07
  1 2.73972603E-07
  1 2.73972603E-07
  1 2.73972603E-07
  1 2.73972603E-07
  1 2.73972603E-07
  1 2.73972603E-07
  1 2.73972603E-07
  1 2.73972603E-07
  1 2.73972603E-07
  1 2.73972603E-07
  1 2.73972603E-07
  1 2.73972603E-07
  1 2.73972603E-07
  1 2.73972603E-07
  1 2.73972603E-07
  1 2.73972603E-07
  1 2.73972603E-07
  1 2.73972603E-07
  1 2.73972603E-07
  1 2.73972603E-07
  1 2.73972603E-07
  1 2.73972603E-07
  1 2.73972603E-07
  1 2.73972603E-07
  1 2.73972603E-07
  1 2.73972603E-07
  1 2.73972603E-07
  1 2.73972603E-07
  1 2.73972603E-07
  1 2.73972603E-07
  1 2.73972603E-07
  1 2.73972603E-07
  1 2.73972603E-07
  1 2.73972603E-07
  1 2.73972603E-07
  1 2.73972603E-07
  1 2.73972603E-07
  1 2.73972603E-07
  1 2.73972603E-07
  1 2.73972603E-07
  1 2.73972603E-07
  1 2.73972603E-07
  1 2.73972603E-07
  1 2.73972603E-07
  1 2.73972603E-07
  1 2.73972603E-07
  1 2.73972603E-07
  1 2.73972603E-07
  1 2.73972603E-07
  1 2.73972603E-07
  1 2.73972603E-07
  1 2.73972603E-07
  1 2.73972603E-07
  1 2.73972603E-07
  1 2.73972603E-07
  1 2.73972603E-07
  1 2.73972603E-07
  1 2.73972603E-07
  1 2.73972603E-07
  1 2.73972603E-07
  1 2.73972603E-07
  1 2.73972603E-07
  1 2.73972603E-07
  1 2.73972603E-07
  1 2.73972603E-07
  1 2.73972603E-07
  1 2.73972603E-07
  1 2.73972603E-07
  1 2.73972603E-07
  1 2.73972603E-07
  1 2.73972603E-07
  1 2.73972603E-07
  1 2.73972603E-07
  1 2.73972603E-07
  1 2.73972603E-07
  1 2.73972603E-07
  1 2.73972603E-07
  1 2.73972603E-07
  1 2.73972603E-07
  1 2.73972603E-07
  1 2.73972603E-07
  1 2.73972603E-07
  1 2.73972603E-07
  1 2.73972603E-07
  1 2.73972603E-07
  1 2.73972603E-07
  1 2.73972603E-07
  1 2.73972603E-07
  1 2.73972603E-07
  1 2.73972603E-07
  1 2.73972603E-07
  1 2.73972603E-07
  1 2.73972603E-07
  1 2.73972603E-07
  1 2.73972603E-07
  1 2.73972603E-07
  1 2.73972603E-07
  1 2.73972603E-07
  1 2.73972603E-07
  1 2.73972603E-07
  1 2.73972603E-07
  1 2.73972603E-07
  1 2.73972603E-07
  1 2.73972603E-07
  1 2.73972603E-07
  1 2.73972603E-07
  1 2.73972603E-07
  1 2.73972603E-07
  1 2.73972603E-07
  1 2.73972603E-07
  1 2.73972603E-07
  1 2.73972603E-07
  1 2.73972603E-07
  1 2.73972603E-07
  1 2.73972603E-07
  1 2.73972603E-07
  1 2.73972603E-07
  1 2.73972603E-07
  1 2.73972603E-07
  1 2.73972603E-07
  1 2.73972603E-07
  1 2.73972603E-07
  1 2.73972603E-07
  1 2.73972603E-07
  1 2.73972603E-07
  1 2.73972603E-07
  1 2.73972603E-07
  1 2.73972603E-07
  1 2.73972603E-07
  1 2.73972603E-07
  1 2.73972603E-07
  1 2.73972603E-07
  1 2.73972603E-07
  1 2.73972603E-07
  1 2.73972603E-07
  1 2.73972603E-07
  1 2.73972603E-07
  1 2.73972603E-07
  1 2.73972603E-07
  1 2.73972603E-07
  1 2.73972603E-07
  1 2.73972603E-07
  1 2.73972603E-07
  1 2.73972603E-07
  1 2.73972603E-07
  1 2.73972603E-07
  1 2.73972603E-07
  1 2.73972603E-07
  1 2.73972603E-07
  1 2.73972603E-07
  1 2.73972603E-07
  1 2.73972603E-07
  1 2.73972603E-07
  1 2.73972603E-07
  1 2.73972603E-07
  1 2.73972603E-07
  1 2.73972603E-07
  1 2.73972603E-07
  1 2.73972603E-07
  1 2.73972603E-07
  1 2.73972603E-07
  1 2.73972603E-07
  1 2.73972603E-07
  1 2.73972603E-07
  1 2.73972603E-07
  1 2.73972603E-07
  1 2.73972603E-07
  1 2.73972603E-07
  1 2.73972603E-07
  1 2.73972603E-07
  1 2.73972603E-07
  1 2.73972603E-07
  1 2.73972603E-07
  1 2.73972603E-07
  1 2.73972603E-07
  1 2.73972603E-07
  1 2.73972603E-07
  1 2.73972603E-07
END period  1

