# File generated by Flopy version 3.8.2 on 02/18/2025 at 17:59:34.
BEGIN options
END options

BEGIN dimensions
  MAXBOUND  1002
END dimensions

BEGIN period  1
  2923 2.26678876E+01
  4260 2.34978876E+01
  5595 2.57178876E+01
  6926 2.93278876E+01
  8259 3.19328876E+01
  9596 3.35328876E+01
  10933 3.65628876E+01
  12270 4.32528876E+01
  3088 2.23972388E+01
  4425 2.32772388E+01
  5758 2.55222388E+01
  7089 2.91322388E+01
  8424 3.17322388E+01
  9761 3.33222388E+01
  11098 3.63222388E+01
  12435 4.29372388E+01
  2932 2.27782564E+01
  4269 2.36782564E+01
  5604 2.59332564E+01
  6935 2.95432564E+01
  8268 3.21432564E+01
  9605 3.37332564E+01
  10942 3.67182564E+01
  12279 4.32882564E+01
  3089 2.28220987E+01
  4426 2.37520987E+01
  5759 2.60220987E+01
  7090 2.96320987E+01
  8425 3.22320987E+01
  9762 3.38220987E+01
  11099 3.67870987E+01
  12436 4.32970987E+01
  2934 2.25037653E+01
  4271 2.34637653E+01
  5606 2.57487653E+01
  6937 2.93587653E+01
  8270 3.19637653E+01
  9607 3.35637653E+01
  10944 3.65137653E+01
  12281 4.29637653E+01
  3090 2.28720987E+01
  4427 2.38620987E+01
  5760 2.61620987E+01
  7091 2.97720987E+01
  8426 3.23720987E+01
  9763 3.39620987E+01
  11100 3.68920987E+01
  12437 4.32970987E+01
  2953 2.25687653E+01
  4290 2.35787653E+01
  5625 2.58887653E+01
  6956 2.94987653E+01
  8289 3.20987653E+01
  9626 3.36887653E+01
  10963 3.66037653E+01
  12300 4.29637653E+01
  3092 2.29320987E+01
  4429 2.39620987E+01
  5762 2.62820987E+01
  7093 2.98920987E+01
  8428 3.24970987E+01
  9765 3.40970987E+01
  11102 3.69970987E+01
  12439 4.32970987E+01
  2935 2.26337653E+01
  4272 2.36937653E+01
  5607 2.60287653E+01
  6938 2.96387653E+01
  8271 3.22387653E+01
  9608 3.38287653E+01
  10945 3.67087653E+01
  12282 4.29637653E+01
  3093 2.29820987E+01
  4430 2.40720987E+01
  5763 2.64220987E+01
  7094 3.00320987E+01
  8429 3.26320987E+01
  9766 3.42220987E+01
  11103 3.70870987E+01
  12440 4.32970987E+01
  2943 2.26787653E+01
  4280 2.37887653E+01
  5615 2.61487653E+01
  6946 2.97587653E+01
  8279 3.23637653E+01
  9616 3.39637653E+01
  10953 3.68137653E+01
  12290 4.29637653E+01
  3101 2.30470987E+01
  4438 2.41870987E+01
  5771 2.65620987E+01
  7102 3.01720987E+01
  8437 3.27720987E+01
  9774 3.43620987E+01
  11111 3.71920987E+01
  12448 4.32970987E+01
  2941 2.27437653E+01
  4278 2.39037653E+01
  5613 2.62887653E+01
  6944 2.98987653E+01
  8277 3.25037653E+01
  9614 3.41037653E+01
  10951 3.69187653E+01
  12288 4.29637653E+01
  3102 2.31120987E+01
  4439 2.43020987E+01
  5772 2.67020987E+01
  7103 3.03120987E+01
  8438 3.29120987E+01
  9775 3.45020987E+01
  11112 3.72970987E+01
  12449 4.32970987E+01
  2946 2.27937653E+01
  4283 2.40137653E+01
  5618 2.64287653E+01
  6949 3.00387653E+01
  8282 3.26387653E+01
  9619 3.42287653E+01
  10956 3.70087653E+01
  12293 4.29637653E+01
  3095 2.31620987E+01
  4432 2.44120987E+01
  5765 2.68420987E+01
  7096 3.04520987E+01
  8431 3.30520987E+01
  9768 3.46420987E+01
  11105 3.74020987E+01
  12442 4.32970987E+01
  2938 2.28587653E+01
  4275 2.41287653E+01
  5610 2.65687653E+01
  6941 3.01787653E+01
  8274 3.27787653E+01
  9611 3.43687653E+01
  10948 3.71137653E+01
  12285 4.29637653E+01
  3096 2.32270987E+01
  4433 2.45270987E+01
  5766 2.69820987E+01
  7097 3.05920987E+01
  8432 3.31920987E+01
  9769 3.47820987E+01
  11106 3.75070987E+01
  12443 4.32970987E+01
  2952 2.29237653E+01
  4289 2.42437653E+01
  5624 2.67087653E+01
  6955 3.03187653E+01
  8288 3.29187653E+01
  9625 3.45087653E+01
  10962 3.72187653E+01
  12299 4.29637653E+01
  3098 2.32920987E+01
  4435 2.46420987E+01
  5768 2.71220987E+01
  7099 3.07320987E+01
  8434 3.33320987E+01
  9771 3.49220987E+01
  11108 3.76120987E+01
  12445 4.32970987E+01
  2939 2.29737653E+01
  4276 2.43537653E+01
  5611 2.68487653E+01
  6942 3.04587653E+01
  8275 3.30587653E+01
  9612 3.46487653E+01
  10949 3.73237653E+01
  12286 4.29637653E+01
  3099 2.33420987E+01
  4436 2.47520987E+01
  5769 2.72620987E+01
  7100 3.08720987E+01
  8435 3.34770987E+01
  9772 3.50770987E+01
  11109 3.77320987E+01
  12446 4.32970987E+01
  2947 2.30387653E+01
  4284 2.44687653E+01
  5619 2.69887653E+01
  6950 3.05987653E+01
  8283 3.32037653E+01
  9620 3.48037653E+01
  10957 3.74437653E+01
  12294 4.29637653E+01
  2958 2.34070987E+01
  4295 2.48670987E+01
  5630 2.74070987E+01
  6961 3.10270987E+01
  8294 3.36320987E+01
  9631 3.52220987E+01
  10968 3.78370987E+01
  12305 4.32970987E+01
  3105 2.31087653E+01
  4442 2.45987653E+01
  5775 2.71487653E+01
  7106 3.07587653E+01
  8441 3.33587653E+01
  9778 3.49487653E+01
  11115 3.75487653E+01
  12452 4.29637653E+01
  2950 2.34770987E+01
  4287 2.49970987E+01
  5622 2.75620987E+01
  6953 3.11720987E+01
  8286 3.37720987E+01
  9623 3.53620987E+01
  10960 3.79420987E+01
  12297 4.32970987E+01
  3103 2.31587653E+01
  4440 2.47087653E+01
  5773 2.72887653E+01
  7104 3.08987653E+01
  8439 3.35037653E+01
  9776 3.51037653E+01
  11113 3.76687653E+01
  12450 4.29637653E+01
  3107 2.35320987E+01
  4444 2.51220987E+01
  5777 2.77220987E+01
  7108 3.13320987E+01
  8443 3.39320987E+01
  9780 3.55220987E+01
  11117 3.80620987E+01
  12454 4.32970987E+01
  3006 2.32287653E+01
  4343 2.48387653E+01
  5678 2.74487653E+01
  7009 3.10587653E+01
  8342 3.36587653E+01
  9679 3.52487653E+01
  11016 3.77737653E+01
  12353 4.29637653E+01
  3108 2.36020987E+01
  4445 2.52520987E+01
  5778 2.78820987E+01
  7109 3.14920987E+01
  8444 3.40920987E+01
  9781 3.56820987E+01
  11118 3.81820987E+01
  12455 4.32970987E+01
  3025 2.32987653E+01
  4362 2.49687653E+01
  5697 2.76087653E+01
  7028 3.12187653E+01
  8361 3.38187653E+01
  9698 3.54087653E+01
  11035 3.78937653E+01
  12372 4.29637653E+01
  3110 2.36720987E+01
  4447 2.53820987E+01
  5780 2.80420987E+01
  7111 3.16520987E+01
  8446 3.42520987E+01
  9783 3.58420987E+01
  11120 3.83020987E+01
  12457 4.32970987E+01
  3007 2.33687653E+01
  4344 2.50987653E+01
  5679 2.77687653E+01
  7010 3.13787653E+01
  8343 3.39787653E+01
  9680 3.55687653E+01
  11017 3.80137653E+01
  12354 4.29637653E+01
  1774 2.23920987E+01
  3111 2.37420987E+01
  4448 2.55120987E+01
  5781 2.82020987E+01
  7112 3.18120987E+01
  8447 3.44120987E+01
  9784 3.60020987E+01
  11121 3.84220987E+01
  12458 4.32970987E+01
  1678 2.20787653E+01
  3015 2.34387653E+01
  4352 2.52287653E+01
  5687 2.79287653E+01
  7018 3.15387653E+01
  8351 3.41387653E+01
  9688 3.57287653E+01
  11025 3.81337653E+01
  12362 4.29637653E+01
  1782 2.24320987E+01
  3119 2.38120987E+01
  4456 2.56420987E+01
  5789 2.83620987E+01
  7120 3.19720987E+01
  8455 3.45770987E+01
  9792 3.61770987E+01
  11129 3.85570987E+01
  12466 4.32970987E+01
  1676 2.21187653E+01
  3013 2.35087653E+01
  4350 2.53587653E+01
  5685 2.80887653E+01
  7016 3.16987653E+01
  8349 3.43037653E+01
  9686 3.59037653E+01
  11023 3.82687653E+01
  12360 4.29637653E+01
  1783 2.24770987E+01
  3120 2.38870987E+01
  4457 2.57870987E+01
  5790 2.85420987E+01
  7121 3.21520987E+01
  8456 3.47520987E+01
  9793 3.63420987E+01
  11130 3.86770987E+01
  12467 4.32970987E+01
  1681 2.21587653E+01
  3018 2.35837653E+01
  4355 2.55037653E+01
  5690 2.82687653E+01
  7021 3.18787653E+01
  8354 3.44787653E+01
  9691 3.60687653E+01
  11028 3.83887653E+01
  12365 4.29637653E+01
  1776 2.25170987E+01
  3113 2.39570987E+01
  4450 2.59170987E+01
  5783 2.87020987E+01
  7114 3.23120987E+01
  8449 3.49170987E+01
  9786 3.65170987E+01
  11123 3.88120987E+01
  12460 4.32970987E+01
  1673 2.22037653E+01
  3010 2.36587653E+01
  4347 2.56487653E+01
  5682 2.84487653E+01
  7013 3.20587653E+01
  8346 3.46587653E+01
  9683 3.62487653E+01
  11020 3.85237653E+01
  12357 4.29637653E+01
  1777 2.25620987E+01
  3114 2.40320987E+01
  4451 2.60620987E+01
  5784 2.88820987E+01
  7115 3.24920987E+01
  8450 3.50970987E+01
  9787 3.66970987E+01
  11124 3.89470987E+01
  12461 4.32970987E+01
  1687 2.22437653E+01
  3024 2.37287653E+01
  4361 2.57787653E+01
  5696 2.86087653E+01
  7027 3.22187653E+01
  8360 3.48237653E+01
  9697 3.64237653E+01
  11034 3.86587653E+01
  12371 4.29637653E+01
  1779 2.26020987E+01
  3116 2.41070987E+01
  4453 2.62070987E+01
  5786 2.90620987E+01
  7117 3.26720987E+01
  8452 3.52770987E+01
  9789 3.68770987E+01
  11126 3.90820987E+01
  12463 4.32970987E+01
  1674 2.22887653E+01
  3011 2.38037653E+01
  4348 2.59237653E+01
  5683 2.87887653E+01
  7014 3.23987653E+01
  8347 3.50037653E+01
  9684 3.66037653E+01
  11021 3.87937653E+01
  12358 4.29637653E+01
  1780 2.26470987E+01
  3117 2.41820987E+01
  4454 2.63520987E+01
  5787 2.92420987E+01
  7118 3.28520987E+01
  8453 3.54570987E+01
  9790 3.70570987E+01
  11127 3.92170987E+01
  12464 4.32970987E+01
  1682 2.23337653E+01
  3019 2.38787653E+01
  4356 2.60687653E+01
  5691 2.89687653E+01
  7022 3.25787653E+01
  8355 3.51837653E+01
  9692 3.67837653E+01
  11029 3.89287653E+01
  12366 4.29637653E+01
  1689 2.26870987E+01
  3026 2.42570987E+01
  4363 2.64970987E+01
  5698 2.94220987E+01
  7029 3.30320987E+01
  8362 3.56370987E+01
  9699 3.72370987E+01
  11036 3.93520987E+01
  12373 4.32970987E+01
  1786 2.23737653E+01
  3123 2.39537653E+01
  4460 2.62137653E+01
  5793 2.91487653E+01
  7124 3.27587653E+01
  8459 3.53637653E+01
  9796 3.69637653E+01
  11133 3.90637653E+01
  12470 4.29637653E+01
  1685 2.27320987E+01
  3022 2.43320987E+01
  4359 2.66420987E+01
  5694 2.96020987E+01
  7025 3.32120987E+01
  8358 3.58170987E+01
  9695 3.74170987E+01
  11032 3.94870987E+01
  12369 4.32970987E+01
  1784 2.24187653E+01
  3121 2.40287653E+01
  4458 2.63587653E+01
  5791 2.93287653E+01
  7122 3.29387653E+01
  8457 3.55437653E+01
  9794 3.71437653E+01
  11131 3.91987653E+01
  12468 4.29637653E+01
  1788 2.27920987E+01
  3125 2.44220987E+01
  4462 2.67920987E+01
  5795 2.97820987E+01
  7126 3.33920987E+01
  8461 3.59970987E+01
  9798 3.75970987E+01
  11135 3.96220987E+01
  12472 4.32970987E+01
  1691 2.24587653E+01
  3028 2.41037653E+01
  4365 2.65037653E+01
  5700 2.95137653E+01
  7031 3.31337653E+01
  8364 3.57387653E+01
  9701 3.73287653E+01
  11038 3.93337653E+01
  12375 4.29637653E+01
  1789 2.28320987E+01
  3126 2.44970987E+01
  4463 2.69370987E+01
  5796 2.99620987E+01
  7127 3.35720987E+01
  8462 3.61770987E+01
  9799 3.77770987E+01
  11136 3.97570987E+01
  12473 4.32970987E+01
  1712 2.25037653E+01
  3049 2.41787653E+01
  4386 2.66487653E+01
  5720 2.96887653E+01
  7051 3.32987653E+01
  8385 3.59037653E+01
  9722 3.75037653E+01
  11059 3.94687653E+01
  12396 4.29637653E+01
  1791 2.28770987E+01
  3128 2.45720987E+01
  4465 2.70820987E+01
  5798 3.01420987E+01
  7129 3.37520987E+01
  8464 3.63570987E+01
  9801 3.79570987E+01
  11138 3.98920987E+01
  12475 4.32970987E+01
  1692 2.25637653E+01
  3029 2.42687653E+01
  4366 2.67987653E+01
  5701 2.98687653E+01
  7032 3.34787653E+01
  8365 3.60837653E+01
  9702 3.76837653E+01
  11039 3.96037653E+01
  12376 4.29637653E+01
  1792 2.29170987E+01
  3129 2.46470987E+01
  4466 2.72270987E+01
  5799 3.03220987E+01
  7130 3.39320987E+01
  8465 3.65320987E+01
  9802 3.81220987E+01
  11139 4.00120987E+01
  12476 4.32970987E+01
  1711 2.26037653E+01
  3048 2.43437653E+01
  4385 2.69437653E+01
  5719 3.00487653E+01
  7050 3.36587653E+01
  8384 3.62637653E+01
  9721 3.78637653E+01
  11058 3.97387653E+01
  12395 4.29637653E+01
  1800 2.29620987E+01
  3137 2.47220987E+01
  4474 2.73720987E+01
  5807 3.05020987E+01
  7138 3.41120987E+01
  8473 3.67120987E+01
  9810 3.83020987E+01
  11147 4.01470987E+01
  12484 4.32970987E+01
  1698 2.26487653E+01
  3035 2.44187653E+01
  4372 2.70887653E+01
  5707 3.02287653E+01
  7038 3.38387653E+01
  8371 3.64387653E+01
  9708 3.80287653E+01
  11045 3.98587653E+01
  12382 4.29637653E+01
  1801 2.30020987E+01
  3138 2.47920987E+01
  4475 2.75020987E+01
  5808 3.06620987E+01
  7139 3.42720987E+01
  8474 3.68770987E+01
  9811 3.84770987E+01
  11148 4.02820987E+01
  12485 4.32970987E+01
  1700 2.26887653E+01
  3037 2.44887653E+01
  4374 2.72187653E+01
  5709 3.03937653E+01
  7040 3.40137653E+01
  8373 3.66187653E+01
  9710 3.82087653E+01
  11047 3.99937653E+01
  12384 4.29637653E+01
  1794 2.30470987E+01
  3131 2.48670987E+01
  4468 2.76470987E+01
  5801 3.08420987E+01
  7132 3.44520987E+01
  8467 3.70520987E+01
  9804 3.86420987E+01
  11141 4.04020987E+01
  12478 4.32970987E+01
  1695 2.27337653E+01
  3032 2.45637653E+01
  4369 2.73637653E+01
  5704 3.05687653E+01
  7035 3.41787653E+01
  8368 3.67787653E+01
  9705 3.83687653E+01
  11042 4.01137653E+01
  12379 4.29637653E+01
  1795 2.30870987E+01
  3132 2.49370987E+01
  4469 2.77770987E+01
  5802 3.10070987E+01
  7133 3.46270987E+01
  8468 3.72320987E+01
  9805 3.88220987E+01
  11142 4.05370987E+01
  12479 4.32970987E+01
  1703 2.27737653E+01
  3040 2.46337653E+01
  4377 2.74937653E+01
  5711 3.07287653E+01
  7042 3.43387653E+01
  8376 3.69437653E+01
  9713 3.85437653E+01
  11050 4.02487653E+01
  12387 4.29637653E+01
  1797 2.31320987E+01
  3134 2.50120987E+01
  4471 2.79220987E+01
  5804 3.11820987E+01
  7135 3.47920987E+01
  8470 3.73920987E+01
  9807 3.89820987E+01
  11144 4.06570987E+01
  12481 4.32970987E+01
  1696 2.28137653E+01
  3033 2.47087653E+01
  4370 2.76387653E+01
  5705 3.09087653E+01
  7036 3.45187653E+01
  8369 3.71187653E+01
  9706 3.87087653E+01
  11043 4.03687653E+01
  12380 4.29637653E+01
  1798 2.31720987E+01
  3135 2.50820987E+01
  4472 2.80520987E+01
  5805 3.13420987E+01
  7136 3.49520987E+01
  8471 3.75570987E+01
  9808 3.91570987E+01
  11145 4.07920987E+01
  12482 4.32970987E+01
  1705 2.28437653E+01
  3042 2.47637653E+01
  4379 2.77637653E+01
  5713 3.10687653E+01
  7044 3.46787653E+01
  8378 3.72837653E+01
  9715 3.88837653E+01
  11052 4.05037653E+01
  12389 4.29637653E+01
  1713 2.32120987E+01
  3050 2.51570987E+01
  4387 2.81970987E+01
  5721 3.15220987E+01
  7052 3.51320987E+01
  8386 3.77320987E+01
  9723 3.93220987E+01
  11060 4.09120987E+01
  12397 4.32970987E+01
  1804 2.28550426E+01
  3141 2.48050426E+01
  4478 2.78650426E+01
  5811 3.12000426E+01
  7142 3.48100426E+01
  8477 3.74150426E+01
  9814 3.90150426E+01
  11151 4.05950426E+01
  12488 4.29350426E+01
  1802 2.28346814E+01
  3139 2.48146814E+01
  4476 2.79346814E+01
  5809 3.12996814E+01
  7140 3.49096814E+01
  8475 3.75146814E+01
  9812 3.91146814E+01
  11149 4.06546814E+01
  12486 4.28746814E+01
  1704 2.32283759E+01
  3041 2.51983759E+01
  4378 2.82983759E+01
  5712 3.16533759E+01
  7043 3.52633759E+01
  8377 3.78633759E+01
  9714 3.94533759E+01
  11051 4.10033759E+01
  12388 4.32683759E+01
  2734 7.09862098E-01
  4071 1.70986210E+00
  5408 4.01486210E+00
  6739 7.62486210E+00
  8070 1.02298621E+01
  9407 1.18298621E+01
  10744 1.46898621E+01
  12081 2.08698621E+01
  2735 5.52596627E-01
  4072 1.62259663E+00
  5409 3.96259663E+00
  6740 7.57259663E+00
  8071 1.01775966E+01
  9408 1.17775966E+01
  10745 1.45975966E+01
  12082 2.06575966E+01
  2738 -2.04919823E-01
  4075 1.15508018E+00
  5412 3.64008018E+00
  6743 7.25008018E+00
  8074 9.85508018E+00
  9411 1.14550802E+01
  10748 1.41200802E+01
  12085 1.97150802E+01
  2723 -3.57185294E-01
  4060 1.08281471E+00
  5397 3.61281471E+00
  6728 7.23281471E+00
  8059 9.83781471E+00
  9396 1.14278147E+01
  10733 1.40428147E+01
  12070 1.95028147E+01
  2721 -1.11970174E+00
  4058 6.00298256E-01
  5395 3.26529826E+00
  6726 6.87529826E+00
  8057 9.48029826E+00
  9394 1.10802983E+01
  10731 1.35502983E+01
  12068 1.85602983E+01
  2724 -1.25196722E+00
  4061 5.48032785E-01
  5398 3.25303278E+00
  6729 6.86303278E+00
  8060 9.46303278E+00
  9397 1.10530328E+01
  10734 1.34730328E+01
  12071 1.83480328E+01
  2726 -2.06948367E+00
  4063 -5.94836654E-02
  5400 2.75551633E+00
  6731 6.37551633E+00
  8062 8.98051633E+00
  9399 1.05705163E+01
  10736 1.28755163E+01
  12073 1.74055163E+01
  2725 -2.18821615E+00
  4062 -1.18216146E-01
  5399 2.72178385E+00
  6730 6.33178385E+00
  8061 8.93178385E+00
  9398 1.05217839E+01
  10735 1.27917839E+01
  12072 1.72167839E+01
  2766 -2.97880640E+00
  4103 -8.08806397E-01
  5439 2.08119360E+00
  6770 5.69119360E+00
  8102 8.29119360E+00
  9439 9.88119360E+00
  10776 1.20961936E+01
  12113 1.63561936E+01
  2687 -3.01431257E+00
  4024 -8.14312568E-01
  5361 2.09068743E+00
  6692 5.70068743E+00
  8023 8.30568743E+00
  9360 9.90568743E+00
  10697 1.20956874E+01
  12034 1.62656874E+01
  2685 -3.71244609E+00
  4022 -1.44244609E+00
  5359 1.49755391E+00
  6690 5.10755391E+00
  8021 7.71255391E+00
  9358 9.31255391E+00
  10695 1.14625539E+01
  12032 1.55125539E+01
  2688 -3.69388875E+00
  4025 -1.38388875E+00
  5362 1.57611125E+00
  6693 5.18611125E+00
  8024 7.78611125E+00
  9361 9.37611125E+00
  10698 1.14961113E+01
  12035 1.54711113E+01
  2694 -4.35925887E+00
  4031 -1.97925887E+00
  5368 1.01574113E+00
  6699 4.62574113E+00
  8030 7.22574113E+00
  9367 8.81574113E+00
  10704 1.08957411E+01
  12041 1.47507411E+01
  2690 -4.34570152E+00
  4027 -1.93570152E+00
  5364 1.07429848E+00
  6695 4.68429848E+00
  8026 7.28929848E+00
  9363 8.88929848E+00
  10700 1.09442985E+01
  12037 1.47092985E+01
  2677 -4.99107164E+00
  4014 -2.51107164E+00
  5351 5.33928361E-01
  6682 4.14392836E+00
  8013 6.74392836E+00
  9350 8.33392836E+00
  10687 1.03439284E+01
  12024 1.39889284E+01
  2675 -4.99251429E+00
  4012 -2.47251429E+00
  5349 5.92485706E-01
  6680 4.20248571E+00
  8011 6.80748571E+00
  9348 8.40748571E+00
  10685 1.03924857E+01
  12022 1.39474857E+01
  2678 -5.64288441E+00
  4015 -3.06288441E+00
  5352 3.21155873E-02
  6683 3.64211559E+00
  8014 6.24711559E+00
  9351 7.84711559E+00
  10688 9.79211559E+00
  12025 1.32271156E+01
  2681 -5.65574318E+00
  4018 -3.02574318E+00
  5355 9.42568222E-02
  6686 3.70425682E+00
  8017 6.30425682E+00
  9354 7.89425682E+00
  10691 9.80925682E+00
  12028 1.31692568E+01
  2679 -6.36558033E+00
  4016 -3.66558033E+00
  5353 -5.10580328E-01
  6684 3.09941967E+00
  8015 5.69941967E+00
  9352 7.28941967E+00
  10689 9.16441967E+00
  12026 1.24044197E+01
  2682 -6.30029897E+00
  4019 -3.58029897E+00
  5356 -4.15298970E-01
  6687 3.19470103E+00
  8018 5.79970103E+00
  9355 7.39970103E+00
  10692 9.25970103E+00
  12029 1.24397010E+01
  3721 -6.58689391E+00
  5058 -3.83689391E+00
  6389 -6.56893907E-01
  7720 2.95310609E+00
  9057 5.55810609E+00
  10394 7.15810609E+00
  11731 8.99810609E+00
  13068 1.21181061E+01
  2708 -7.24984245E+00
  4045 -4.45984245E+00
  5382 -1.25984245E+00
  6713 2.35015755E+00
  8044 4.95515755E+00
  9381 6.55515755E+00
  10718 8.37015755E+00
  12055 1.14151575E+01
  2707 -7.40621650E+00
  4044 -4.57621650E+00
  5381 -1.35621650E+00
  6712 2.25378350E+00
  8043 4.85878350E+00
  9380 6.45878350E+00
  10717 8.24878350E+00
  12054 1.12187835E+01
  2712 -8.27263015E+00
  4049 -5.39263015E+00
  5386 -2.14763015E+00
  6717 1.46236985E+00
  8048 4.06236985E+00
  9385 5.65236985E+00
  10722 7.41236985E+00
  12059 1.03073699E+01
  2711 -8.43400420E+00
  4048 -5.52400420E+00
  5385 -2.26400420E+00
  6716 1.34599580E+00
  8047 3.95099580E+00
  9384 5.55099580E+00
  10721 7.29099580E+00
  12058 1.01109958E+01
  2714 -9.32541784E+00
  4051 -6.37541784E+00
  5388 -3.09541784E+00
  6719 5.14582161E-01
  8050 3.11958216E+00
  9387 4.71958216E+00
  10724 6.43958216E+00
  12061 9.19958216E+00
  2699 -9.49179189E+00
  4036 -6.52179189E+00
  5373 -3.22679189E+00
  6704 3.93208109E-01
  8035 2.99820811E+00
  9372 4.58820811E+00
  10709 6.28820811E+00
  12046 9.00320811E+00
  2697 -1.04032055E+01
  4034 -7.39320553E+00
  5371 -4.08320553E+00
  6702 -4.73205532E-01
  8033 2.12679447E+00
  9370 3.71679447E+00
  10707 5.40679447E+00
  12044 8.09179447E+00
  2700 -1.05745796E+01
  4037 -7.55457958E+00
  5374 -4.23957958E+00
  6705 -6.29579585E-01
  8036 1.97042042E+00
  9373 3.56042042E+00
  10710 5.24042042E+00
  12047 7.89542042E+00
  2702 -1.14959932E+01
  4039 -8.45599323E+00
  5376 -5.13099323E+00
  6707 -1.52099323E+00
  8038 1.07900677E+00
  9375 2.66900677E+00
  10712 4.34400677E+00
  12049 6.98400677E+00
  2701 -1.16873673E+01
  4038 -8.63736728E+00
  5375 -5.30736728E+00
  6706 -1.69736728E+00
  8037 9.02632722E-01
  9374 2.49263272E+00
  10711 4.16263272E+00
  12048 6.78763272E+00
  2704 -1.26187809E+01
  4041 -9.56878092E+00
  5378 -6.23878092E+00
  6709 -2.62878092E+00
  8040 -2.37809195E-02
  9377 1.57621908E+00
  10714 3.25121908E+00
  12051 5.87621908E+00
  2813 -1.28101550E+01
  4150 -9.75015497E+00
  5486 -6.41515497E+00
  6817 -2.80515497E+00
  8149 -2.05154972E-01
  9486 1.38484503E+00
  10823 3.05484503E+00
  12160 5.67984503E+00
  2779 -1.37415686E+01
  4116 -1.06815686E+01
  5452 -7.34656861E+00
  6783 -3.73656861E+00
  8115 -1.13656861E+00
  9452 4.53431387E-01
  10789 2.12843139E+00
  12126 4.76843139E+00
  2782 -1.39379427E+01
  4119 -1.08779427E+01
  5455 -7.54294267E+00
  6786 -3.93294267E+00
  8118 -1.33294267E+00
  9455 2.57057335E-01
  10792 1.93205733E+00
  12129 4.57205733E+00
  2784 -1.48693563E+01
  4121 -1.18093563E+01
  5457 -8.47435631E+00
  6788 -4.86435631E+00
  8120 -2.26435631E+00
  9457 -6.74356307E-01
  10794 1.00564369E+00
  12131 3.66064369E+00
  2783 -1.50260322E+01
  4120 -1.19660322E+01
  5456 -8.63103216E+00
  6787 -5.02103216E+00
  8119 -2.42103216E+00
  9456 -8.31032161E-01
  10793 8.48967839E-01
  12130 3.50396784E+00
  2786 -1.58324636E+01
  4123 -1.27624636E+01
  5459 -9.42246357E+00
  6790 -5.81246357E+00
  8122 -3.21246357E+00
  9459 -1.62246357E+00
  10796 5.75364258E-02
  12133 2.71253643E+00
  2771 -1.58590652E+01
  4108 -1.27890652E+01
  5444 -9.44906520E+00
  6775 -5.83906520E+00
  8107 -3.23906520E+00
  9444 -1.64906520E+00
  10781 3.09348035E-02
  12118 2.68593480E+00
  2769 -1.65433088E+01
  4106 -1.34733088E+01
  5442 -1.01333088E+01
  6773 -6.52330880E+00
  8105 -3.92330880E+00
  9442 -2.33330880E+00
  10779 -6.53308803E-01
  12116 2.00169120E+00
  2772 -1.65380066E+01
  4109 -1.34580066E+01
  5445 -1.01130066E+01
  6776 -6.50300665E+00
  8108 -3.90300665E+00
  9445 -2.31300665E+00
  10782 -6.38006650E-01
  12119 2.00199335E+00
  2774 -1.72204385E+01
  4111 -1.41304385E+01
  5447 -1.07804385E+01
  6778 -7.17043848E+00
  8110 -4.57043848E+00
  9447 -2.98043848E+00
  10784 -1.30543848E+00
  12121 1.33456152E+00
  2773 -1.72151363E+01
  4110 -1.41151363E+01
  5446 -1.07601363E+01
  6777 -7.15013633E+00
  8109 -4.55013633E+00
  9446 -2.96013633E+00
  10783 -1.29013633E+00
  12120 1.33486367E+00
  2776 -1.78825682E+01
  4113 -1.47825682E+01
  5449 -1.14275682E+01
  6780 -7.81756817E+00
  8112 -5.21256817E+00
  9449 -3.61256817E+00
  10786 -1.94256817E+00
  12123 6.67431835E-01
  2791 -1.78229611E+01
  4128 -1.47129611E+01
  5464 -1.13529611E+01
  6795 -7.74296106E+00
  8127 -5.13796106E+00
  9464 -3.53796106E+00
  10801 -1.87296106E+00
  12138 7.22038938E-01
END period  1

