# File generated by Flopy version 3.9.3 on 07/21/2025 at 23:04:15.
BEGIN options
END options

BEGIN timing
  TDIS6  sim.tdis
END timing

BEGIN models
  gwf6  transientmodel.nam  transientmodel
END models

BEGIN exchanges
END exchanges

BEGIN solutiongroup  1
  ims6  sim.ims  transientmodel
END solutiongroup  1

