# File generated by Flopy version 3.9.3 on 07/21/2025 at 23:04:15.
BEGIN options
END options

BEGIN dimensions
  NPER  1
END dimensions

BEGIN perioddata
     730.00000000  12       1.10000000
END perioddata

