# File generated by Flopy version 3.9.3 on 07/22/2025 at 09:23:48.
BEGIN options
END options

BEGIN dimensions
  MAXBOUND  2500
END dimensions

BEGIN period  1
  1 2.73972603E-07
  1 2.73972603E-07
  1 2.73972603E-07
  1 2.73972603E-07
  1 2.73972603E-07
  1 2.73972603E-07
  1 2.73972603E-07
  1 2.73972603E-07
  1 2.73972603E-07
  1 2.73972603E-07
  1 2.73972603E-07
  1 2.73972603E-07
  1 2.73972603E-07
  1 2.73972603E-07
  1 2.73972603E-07
  1 2.73972603E-07
  1 2.73972603E-07
  1 2.73972603E-07
  1 2.73972603E-07
  1 2.73972603E-07
  1 2.73972603E-07
  1 2.73972603E-07
  1 2.73972603E-07
  1 2.73972603E-07
  1 2.73972603E-07
  1 2.73972603E-07
  1 2.73972603E-07
  1 2.73972603E-07
  1 2.73972603E-07
  1 2.73972603E-07
  1 2.73972603E-07
  1 2.73972603E-07
  1 2.73972603E-07
  1 2.73972603E-07
  1 2.73972603E-07
  1 2.73972603E-07
  1 2.73972603E-07
  1 2.73972603E-07
  1 2.73972603E-07
  1 2.73972603E-07
  1 2.73972603E-07
  1 2.73972603E-07
  1 2.73972603E-07
  1 2.73972603E-07
  1 2.73972603E-07
  1 2.73972603E-07
  1 2.73972603E-07
  1 2.73972603E-07
  1 2.73972603E-07
  1 2.73972603E-07
  1 2.73972603E-07
  1 2.73972603E-07
  1 2.73972603E-07
  1 2.73972603E-07
  1 2.73972603E-07
  1 2.73972603E-07
  1 2.73972603E-07
  1 2.73972603E-07
  1 2.73972603E-07
  1 2.73972603E-07
  1 2.73972603E-07
  1 2.73972603E-07
  1 2.73972603E-07
  1 2.73972603E-07
  1 2.73972603E-07
  1 2.73972603E-07
  1 2.73972603E-07
  1 2.73972603E-07
  1 2.73972603E-07
  1 2.73972603E-07
  1 2.73972603E-07
  1 2.73972603E-07
  1 2.73972603E-07
  1 2.73972603E-07
  1 2.73972603E-07
  1 2.73972603E-07
  1 2.73972603E-07
  1 2.73972603E-07
  1 2.73972603E-07
  1 2.73972603E-07
  1 2.73972603E-07
  1 2.73972603E-07
  1 2.73972603E-07
  1 2.73972603E-07
  1 2.73972603E-07
  1 2.73972603E-07
  1 2.73972603E-07
  1 2.73972603E-07
  1 2.73972603E-07
  1 2.73972603E-07
  1 2.73972603E-07
  1 2.73972603E-07
  1 2.73972603E-07
  1 2.73972603E-07
  1 2.73972603E-07
  1 2.73972603E-07
  1 2.73972603E-07
  1 2.73972603E-07
  1 2.73972603E-07
  1 2.73972603E-07
  1 2.73972603E-07
  1 2.73972603E-07
  1 2.73972603E-07
  1 2.73972603E-07
  1 2.73972603E-07
  1 2.73972603E-07
  1 2.73972603E-07
  1 2.73972603E-07
  1 2.73972603E-07
  1 2.73972603E-07
  1 2.73972603E-07
  1 2.73972603E-07
  1 2.73972603E-07
  1 2.73972603E-07
  1 2.73972603E-07
  1 2.73972603E-07
  1 2.73972603E-07
  1 2.73972603E-07
  1 2.73972603E-07
  1 2.73972603E-07
  1 2.73972603E-07
  1 2.73972603E-07
  1 2.73972603E-07
  1 2.73972603E-07
  1 2.73972603E-07
  1 2.73972603E-07
  1 2.73972603E-07
  1 2.73972603E-07
  1 2.73972603E-07
  1 2.73972603E-07
  1 2.73972603E-07
  1 2.73972603E-07
  1 2.73972603E-07
  1 2.73972603E-07
  1 2.73972603E-07
  1 2.73972603E-07
  1 2.73972603E-07
  1 2.73972603E-07
  1 2.73972603E-07
  1 2.73972603E-07
  1 2.73972603E-07
  1 2.73972603E-07
  1 2.73972603E-07
  1 2.73972603E-07
  1 2.73972603E-07
  1 2.73972603E-07
  1 2.73972603E-07
  1 2.73972603E-07
  1 2.73972603E-07
  1 2.73972603E-07
  1 2.73972603E-07
  1 2.73972603E-07
  1 2.73972603E-07
  1 2.73972603E-07
  1 2.73972603E-07
  1 2.73972603E-07
  1 2.73972603E-07
  1 2.73972603E-07
  1 2.73972603E-07
  1 2.73972603E-07
  1 2.73972603E-07
  1 2.73972603E-07
  1 2.73972603E-07
  1 2.73972603E-07
  1 2.73972603E-07
  1 2.73972603E-07
  1 2.73972603E-07
  1 2.73972603E-07
  1 2.73972603E-07
  1 2.73972603E-07
  1 2.73972603E-07
  1 2.73972603E-07
  1 2.73972603E-07
  1 2.73972603E-07
  1 2.73972603E-07
  1 2.73972603E-07
  1 2.73972603E-07
  1 2.73972603E-07
  1 2.73972603E-07
  1 2.73972603E-07
  1 2.73972603E-07
  1 2.73972603E-07
  1 2.73972603E-07
  1 2.73972603E-07
  1 2.73972603E-07
  1 2.73972603E-07
  1 2.73972603E-07
  1 2.73972603E-07
  1 2.73972603E-07
  1 2.73972603E-07
  1 2.73972603E-07
  1 2.73972603E-07
  1 2.73972603E-07
  1 2.73972603E-07
  1 2.73972603E-07
  1 2.73972603E-07
  1 2.73972603E-07
  1 2.73972603E-07
  1 2.73972603E-07
  1 2.73972603E-07
  1 2.73972603E-07
  1 2.73972603E-07
  1 2.73972603E-07
  1 2.73972603E-07
  1 2.73972603E-07
  1 2.73972603E-07
  1 2.73972603E-07
  1 2.73972603E-07
  1 2.73972603E-07
  1 2.73972603E-07
  1 2.73972603E-07
  1 2.73972603E-07
  1 2.73972603E-07
  1 2.73972603E-07
  1 2.73972603E-07
  1 2.73972603E-07
  1 2.73972603E-07
  1 2.73972603E-07
  1 2.73972603E-07
  1 2.73972603E-07
  1 2.73972603E-07
  1 2.73972603E-07
  1 2.73972603E-07
  1 2.73972603E-07
  1 2.73972603E-07
  1 2.73972603E-07
  1 2.73972603E-07
  1 2.73972603E-07
  1 2.73972603E-07
  1 2.73972603E-07
  1 2.73972603E-07
  1 2.73972603E-07
  1 2.73972603E-07
  1 2.73972603E-07
  1 2.73972603E-07
  1 2.73972603E-07
  1 2.73972603E-07
  1 2.73972603E-07
  1 2.73972603E-07
  1 2.73972603E-07
  1 2.73972603E-07
  1 2.73972603E-07
  1 2.73972603E-07
  1 2.73972603E-07
  1 2.73972603E-07
  1 2.73972603E-07
  1 2.73972603E-07
  1 2.73972603E-07
  1 2.73972603E-07
  1 2.73972603E-07
  1 2.73972603E-07
  1 2.73972603E-07
  1 2.73972603E-07
  1 2.73972603E-07
  1 2.73972603E-07
  1 2.73972603E-07
  1 2.73972603E-07
  1 2.73972603E-07
  1 2.73972603E-07
  1 2.73972603E-07
  1 2.73972603E-07
  1 2.73972603E-07
  1 2.73972603E-07
  1 2.73972603E-07
  1 2.73972603E-07
  1 2.73972603E-07
  1 2.73972603E-07
  1 2.73972603E-07
  1 2.73972603E-07
  1 2.73972603E-07
  1 2.73972603E-07
  1 2.73972603E-07
  1 2.73972603E-07
  1 2.73972603E-07
  1 2.73972603E-07
  1 2.73972603E-07
  1 2.73972603E-07
  1 2.73972603E-07
  1 2.73972603E-07
  1 2.73972603E-07
  1 2.73972603E-07
  1 2.73972603E-07
  1 2.73972603E-07
  1 2.73972603E-07
  1 2.73972603E-07
  1 2.73972603E-07
  1 2.73972603E-07
  1 2.73972603E-07
  1 2.73972603E-07
  1 2.73972603E-07
  1 2.73972603E-07
  1 2.73972603E-07
  1 2.73972603E-07
  1 2.73972603E-07
  1 2.73972603E-07
  1 2.73972603E-07
  1 2.73972603E-07
  1 2.73972603E-07
  1 2.73972603E-07
  1 2.73972603E-07
  1 2.73972603E-07
  1 2.73972603E-07
  1 2.73972603E-07
  1 2.73972603E-07
  1 2.73972603E-07
  1 2.73972603E-07
  1 2.73972603E-07
  1 2.73972603E-07
  1 2.73972603E-07
  1 2.73972603E-07
  1 2.73972603E-07
  1 2.73972603E-07
  1 2.73972603E-07
  1 2.73972603E-07
  1 2.73972603E-07
  1 2.73972603E-07
  1 2.73972603E-07
  1 2.73972603E-07
  1 2.73972603E-07
  1 2.73972603E-07
  1 2.73972603E-07
  1 2.73972603E-07
  1 2.73972603E-07
  1 2.73972603E-07
  1 2.73972603E-07
  1 2.73972603E-07
  1 2.73972603E-07
  1 2.73972603E-07
  1 2.73972603E-07
  1 2.73972603E-07
  1 2.73972603E-07
  1 2.73972603E-07
  1 2.73972603E-07
  1 2.73972603E-07
  1 2.73972603E-07
  1 2.73972603E-07
  1 2.73972603E-07
  1 2.73972603E-07
  1 2.73972603E-07
  1 2.73972603E-07
  1 2.73972603E-07
  1 2.73972603E-07
  1 2.73972603E-07
  1 2.73972603E-07
  1 2.73972603E-07
  1 2.73972603E-07
  1 2.73972603E-07
  1 2.73972603E-07
  1 2.73972603E-07
  1 2.73972603E-07
  1 2.73972603E-07
  1 2.73972603E-07
  1 2.73972603E-07
  1 2.73972603E-07
  1 2.73972603E-07
  1 2.73972603E-07
  1 2.73972603E-07
  1 2.73972603E-07
  1 2.73972603E-07
  1 2.73972603E-07
  1 2.73972603E-07
  1 2.73972603E-07
  1 2.73972603E-07
  1 2.73972603E-07
  1 2.73972603E-07
  1 2.73972603E-07
  1 2.73972603E-07
  1 2.73972603E-07
  1 2.73972603E-07
  1 2.73972603E-07
  1 2.73972603E-07
  1 2.73972603E-07
  1 2.73972603E-07
  1 2.73972603E-07
  1 2.73972603E-07
  1 2.73972603E-07
  1 2.73972603E-07
  1 2.73972603E-07
  1 2.73972603E-07
  1 2.73972603E-07
  1 2.73972603E-07
  1 2.73972603E-07
  1 2.73972603E-07
  1 2.73972603E-07
  1 2.73972603E-07
  1 2.73972603E-07
  1 2.73972603E-07
  1 2.73972603E-07
  1 2.73972603E-07
  1 2.73972603E-07
  1 2.73972603E-07
  1 2.73972603E-07
  1 2.73972603E-07
  1 2.73972603E-07
  1 2.73972603E-07
  1 2.73972603E-07
  1 2.73972603E-07
  1 2.73972603E-07
  1 2.73972603E-07
  1 2.73972603E-07
  1 2.73972603E-07
  1 2.73972603E-07
  1 2.73972603E-07
  1 2.73972603E-07
  1 2.73972603E-07
  1 2.73972603E-07
  1 2.73972603E-07
  1 2.73972603E-07
  1 2.73972603E-07
  1 2.73972603E-07
  1 2.73972603E-07
  1 2.73972603E-07
  1 2.73972603E-07
  1 2.73972603E-07
  1 2.73972603E-07
  1 2.73972603E-07
  1 2.73972603E-07
  1 2.73972603E-07
  1 2.73972603E-07
  1 2.73972603E-07
  1 2.73972603E-07
  1 2.73972603E-07
  1 2.73972603E-07
  1 2.73972603E-07
  1 2.73972603E-07
  1 2.73972603E-07
  1 2.73972603E-07
  1 2.73972603E-07
  1 2.73972603E-07
  1 2.73972603E-07
  1 2.73972603E-07
  1 2.73972603E-07
  1 2.73972603E-07
  1 2.73972603E-07
  1 2.73972603E-07
  1 2.73972603E-07
  1 2.73972603E-07
  1 2.73972603E-07
  1 2.73972603E-07
  1 2.73972603E-07
  1 2.73972603E-07
  1 2.73972603E-07
  1 2.73972603E-07
  1 2.73972603E-07
  1 2.73972603E-07
  1 2.73972603E-07
  1 2.73972603E-07
  1 2.73972603E-07
  1 2.73972603E-07
  1 2.73972603E-07
  1 2.73972603E-07
  1 2.73972603E-07
  1 2.73972603E-07
  1 2.73972603E-07
  1 2.73972603E-07
  1 2.73972603E-07
  1 2.73972603E-07
  1 2.73972603E-07
  1 2.73972603E-07
  1 2.73972603E-07
  1 2.73972603E-07
  1 2.73972603E-07
  1 2.73972603E-07
  1 2.73972603E-07
  1 2.73972603E-07
  1 2.73972603E-07
  1 2.73972603E-07
  1 2.73972603E-07
  1 2.73972603E-07
  1 2.73972603E-07
  1 2.73972603E-07
  1 2.73972603E-07
  1 2.73972603E-07
  1 2.73972603E-07
  1 2.73972603E-07
  1 2.73972603E-07
  1 2.73972603E-07
  1 2.73972603E-07
  1 2.73972603E-07
  1 2.73972603E-07
  1 2.73972603E-07
  1 2.73972603E-07
  1 2.73972603E-07
  1 2.73972603E-07
  1 2.73972603E-07
  1 2.73972603E-07
  1 2.73972603E-07
  1 2.73972603E-07
  1 2.73972603E-07
  1 2.73972603E-07
  1 2.73972603E-07
  1 2.73972603E-07
  1 2.73972603E-07
  1 2.73972603E-07
  1 2.73972603E-07
  1 2.73972603E-07
  1 2.73972603E-07
  1 2.73972603E-07
  1 2.73972603E-07
  1 2.73972603E-07
  1 2.73972603E-07
  1 2.73972603E-07
  1 2.73972603E-07
  1 2.73972603E-07
  1 2.73972603E-07
  1 2.73972603E-07
  1 2.73972603E-07
  1 2.73972603E-07
  1 2.73972603E-07
  1 2.73972603E-07
  1 2.73972603E-07
  1 2.73972603E-07
  1 2.73972603E-07
  1 2.73972603E-07
  1 2.73972603E-07
  1 2.73972603E-07
  1 2.73972603E-07
  1 2.73972603E-07
  1 2.73972603E-07
  1 2.73972603E-07
  1 2.73972603E-07
  1 2.73972603E-07
  1 2.73972603E-07
  1 2.73972603E-07
  1 2.73972603E-07
  1 2.73972603E-07
  1 2.73972603E-07
  1 2.73972603E-07
  1 2.73972603E-07
  1 2.73972603E-07
  1 2.73972603E-07
  1 2.73972603E-07
  1 2.73972603E-07
  1 2.73972603E-07
  1 2.73972603E-07
  1 2.73972603E-07
  1 2.73972603E-07
  1 2.73972603E-07
  1 2.73972603E-07
  1 2.73972603E-07
  1 2.73972603E-07
  1 2.73972603E-07
  1 2.73972603E-07
  1 2.73972603E-07
  1 2.73972603E-07
  1 2.73972603E-07
  1 2.73972603E-07
  1 2.73972603E-07
  1 2.73972603E-07
  1 2.73972603E-07
  1 2.73972603E-07
  1 2.73972603E-07
  1 2.73972603E-07
  1 2.73972603E-07
  1 2.73972603E-07
  1 2.73972603E-07
  1 2.73972603E-07
  1 2.73972603E-07
  1 2.73972603E-07
  1 2.73972603E-07
  1 2.73972603E-07
  1 2.73972603E-07
  1 2.73972603E-07
  1 2.73972603E-07
  1 2.73972603E-07
  1 2.73972603E-07
  1 2.73972603E-07
  1 2.73972603E-07
  1 2.73972603E-07
  1 2.73972603E-07
  1 2.73972603E-07
  1 2.73972603E-07
  1 2.73972603E-07
  1 2.73972603E-07
  1 2.73972603E-07
  1 2.73972603E-07
  1 2.73972603E-07
  1 2.73972603E-07
  1 2.73972603E-07
  1 2.73972603E-07
  1 2.73972603E-07
  1 2.73972603E-07
  1 2.73972603E-07
  1 2.73972603E-07
  1 2.73972603E-07
  1 2.73972603E-07
  1 2.73972603E-07
  1 2.73972603E-07
  1 2.73972603E-07
  1 2.73972603E-07
  1 2.73972603E-07
  1 2.73972603E-07
  1 2.73972603E-07
  1 2.73972603E-07
  1 2.73972603E-07
  1 2.73972603E-07
  1 2.73972603E-07
  1 2.73972603E-07
  1 2.73972603E-07
  1 2.73972603E-07
  1 2.73972603E-07
  1 2.73972603E-07
  1 2.73972603E-07
  1 2.73972603E-07
  1 2.73972603E-07
  1 2.73972603E-07
  1 2.73972603E-07
  1 2.73972603E-07
  1 2.73972603E-07
  1 2.73972603E-07
  1 2.73972603E-07
  1 2.73972603E-07
  1 2.73972603E-07
  1 2.73972603E-07
  1 2.73972603E-07
  1 2.73972603E-07
  1 2.73972603E-07
  1 2.73972603E-07
  1 2.73972603E-07
  1 2.73972603E-07
  1 2.73972603E-07
  1 2.73972603E-07
  1 2.73972603E-07
  1 2.73972603E-07
  1 2.73972603E-07
  1 2.73972603E-07
  1 2.73972603E-07
  1 2.73972603E-07
  1 2.73972603E-07
  1 2.73972603E-07
  1 2.73972603E-07
  1 2.73972603E-07
  1 2.73972603E-07
  1 2.73972603E-07
  1 2.73972603E-07
  1 2.73972603E-07
  1 2.73972603E-07
  1 2.73972603E-07
  1 2.73972603E-07
  1 2.73972603E-07
  1 2.73972603E-07
  1 2.73972603E-07
  1 2.73972603E-07
  1 2.73972603E-07
  1 2.73972603E-07
  1 2.73972603E-07
  1 2.73972603E-07
  1 2.73972603E-07
  1 2.73972603E-07
  1 2.73972603E-07
  1 2.73972603E-07
  1 2.73972603E-07
  1 2.73972603E-07
  1 2.73972603E-07
  1 2.73972603E-07
  1 2.73972603E-07
  1 2.73972603E-07
  1 2.73972603E-07
  1 2.73972603E-07
  1 2.73972603E-07
  1 2.73972603E-07
  1 2.73972603E-07
  1 2.73972603E-07
  1 2.73972603E-07
  1 2.73972603E-07
  1 2.73972603E-07
  1 2.73972603E-07
  1 2.73972603E-07
  1 2.73972603E-07
  1 2.73972603E-07
  1 2.73972603E-07
  1 2.73972603E-07
  1 2.73972603E-07
  1 2.73972603E-07
  1 2.73972603E-07
  1 2.73972603E-07
  1 2.73972603E-07
  1 2.73972603E-07
  1 2.73972603E-07
  1 2.73972603E-07
  1 2.73972603E-07
  1 2.73972603E-07
  1 2.73972603E-07
  1 2.73972603E-07
  1 2.73972603E-07
  1 2.73972603E-07
  1 2.73972603E-07
  1 2.73972603E-07
  1 2.73972603E-07
  1 2.73972603E-07
  1 2.73972603E-07
  1 2.73972603E-07
  1 2.73972603E-07
  1 2.73972603E-07
  1 2.73972603E-07
  1 2.73972603E-07
  1 2.73972603E-07
  1 2.73972603E-07
  1 2.73972603E-07
  1 2.73972603E-07
  1 2.73972603E-07
  1 2.73972603E-07
  1 2.73972603E-07
  1 2.73972603E-07
  1 2.73972603E-07
  1 2.73972603E-07
  1 2.73972603E-07
  1 2.73972603E-07
  1 2.73972603E-07
  1 2.73972603E-07
  1 2.73972603E-07
  1 2.73972603E-07
  1 2.73972603E-07
  1 2.73972603E-07
  1 2.73972603E-07
  1 2.73972603E-07
  1 2.73972603E-07
  1 2.73972603E-07
  1 2.73972603E-07
  1 2.73972603E-07
  1 2.73972603E-07
  1 2.73972603E-07
  1 2.73972603E-07
  1 2.73972603E-07
  1 2.73972603E-07
  1 2.73972603E-07
  1 2.73972603E-07
  1 2.73972603E-07
  1 2.73972603E-07
  1 2.73972603E-07
  1 2.73972603E-07
  1 2.73972603E-07
  1 2.73972603E-07
  1 2.73972603E-07
  1 2.73972603E-07
  1 2.73972603E-07
  1 2.73972603E-07
  1 2.73972603E-07
  1 2.73972603E-07
  1 2.73972603E-07
  1 2.73972603E-07
  1 2.73972603E-07
  1 2.73972603E-07
  1 2.73972603E-07
  1 2.73972603E-07
  1 2.73972603E-07
  1 2.73972603E-07
  1 2.73972603E-07
  1 2.73972603E-07
  1 2.73972603E-07
  1 2.73972603E-07
  1 2.73972603E-07
  1 2.73972603E-07
  1 2.73972603E-07
  1 2.73972603E-07
  1 2.73972603E-07
  1 2.73972603E-07
  1 2.73972603E-07
  1 2.73972603E-07
  1 2.73972603E-07
  1 2.73972603E-07
  1 2.73972603E-07
  1 2.73972603E-07
  1 2.73972603E-07
  1 2.73972603E-07
  1 2.73972603E-07
  1 2.73972603E-07
  1 2.73972603E-07
  1 2.73972603E-07
  1 2.73972603E-07
  1 2.73972603E-07
  1 2.73972603E-07
  1 2.73972603E-07
  1 2.73972603E-07
  1 2.73972603E-07
  1 2.73972603E-07
  1 2.73972603E-07
  1 2.73972603E-07
  1 2.73972603E-07
  1 2.73972603E-07
  1 2.73972603E-07
  1 2.73972603E-07
  1 2.73972603E-07
  1 2.73972603E-07
  1 2.73972603E-07
  1 2.73972603E-07
  1 2.73972603E-07
  1 2.73972603E-07
  1 2.73972603E-07
  1 2.73972603E-07
  1 2.73972603E-07
  1 2.73972603E-07
  1 2.73972603E-07
  1 2.73972603E-07
  1 2.73972603E-07
  1 2.73972603E-07
  1 2.73972603E-07
  1 2.73972603E-07
  1 2.73972603E-07
  1 2.73972603E-07
  1 2.73972603E-07
  1 2.73972603E-07
  1 2.73972603E-07
  1 2.73972603E-07
  1 2.73972603E-07
  1 2.73972603E-07
  1 2.73972603E-07
  1 2.73972603E-07
  1 2.73972603E-07
  1 2.73972603E-07
  1 2.73972603E-07
  1 2.73972603E-07
  1 2.73972603E-07
  1 2.73972603E-07
  1 2.73972603E-07
  1 2.73972603E-07
  1 2.73972603E-07
  1 2.73972603E-07
  1 2.73972603E-07
  1 2.73972603E-07
  1 2.73972603E-07
  1 2.73972603E-07
  1 2.73972603E-07
  1 2.73972603E-07
  1 2.73972603E-07
  1 2.73972603E-07
  1 2.73972603E-07
  1 2.73972603E-07
  1 2.73972603E-07
  1 2.73972603E-07
  1 2.73972603E-07
  1 2.73972603E-07
  1 2.73972603E-07
  1 2.73972603E-07
  1 2.73972603E-07
  1 2.73972603E-07
  1 2.73972603E-07
  1 2.73972603E-07
  1 2.73972603E-07
  1 2.73972603E-07
  1 2.73972603E-07
  1 2.73972603E-07
  1 2.73972603E-07
  1 2.73972603E-07
  1 2.73972603E-07
  1 2.73972603E-07
  1 2.73972603E-07
  1 2.73972603E-07
  1 2.73972603E-07
  1 2.73972603E-07
  1 2.73972603E-07
  1 2.73972603E-07
  1 2.73972603E-07
  1 2.73972603E-07
  1 2.73972603E-07
  1 2.73972603E-07
  1 2.73972603E-07
  1 2.73972603E-07
  1 2.73972603E-07
  1 2.73972603E-07
  1 2.73972603E-07
  1 2.73972603E-07
  1 2.73972603E-07
  1 2.73972603E-07
  1 2.73972603E-07
  1 2.73972603E-07
  1 2.73972603E-07
  1 2.73972603E-07
  1 2.73972603E-07
  1 2.73972603E-07
  1 2.73972603E-07
  1 2.73972603E-07
  1 2.73972603E-07
  1 2.73972603E-07
  1 2.73972603E-07
  1 2.73972603E-07
  1 2.73972603E-07
  1 2.73972603E-07
  1 2.73972603E-07
  1 2.73972603E-07
  1 2.73972603E-07
  1 2.73972603E-07
  1 2.73972603E-07
  1 2.73972603E-07
  1 2.73972603E-07
  1 2.73972603E-07
  1 2.73972603E-07
  1 2.73972603E-07
  1 2.73972603E-07
  1 2.73972603E-07
  1 2.73972603E-07
  1 2.73972603E-07
  1 2.73972603E-07
  1 2.73972603E-07
  1 2.73972603E-07
  1 2.73972603E-07
  1 2.73972603E-07
  1 2.73972603E-07
  1 2.73972603E-07
  1 2.73972603E-07
  1 2.73972603E-07
  1 2.73972603E-07
  1 2.73972603E-07
  1 2.73972603E-07
  1 2.73972603E-07
  1 2.73972603E-07
  1 2.73972603E-07
  1 2.73972603E-07
  1 2.73972603E-07
  1 2.73972603E-07
  1 2.73972603E-07
  1 2.73972603E-07
  1 2.73972603E-07
  1 2.73972603E-07
  1 2.73972603E-07
  1 2.73972603E-07
  1 2.73972603E-07
  1 2.73972603E-07
  1 2.73972603E-07
  1 2.73972603E-07
  1 2.73972603E-07
  1 2.73972603E-07
  1 2.73972603E-07
  1 2.73972603E-07
  1 2.73972603E-07
  1 2.73972603E-07
  1 2.73972603E-07
  1 2.73972603E-07
  1 2.73972603E-07
  1 2.73972603E-07
  1 2.73972603E-07
  1 2.73972603E-07
  1 2.73972603E-07
  1 2.73972603E-07
  1 2.73972603E-07
  1 2.73972603E-07
  1 2.73972603E-07
  1 2.73972603E-07
  1 2.73972603E-07
  1 2.73972603E-07
  1 2.73972603E-07
  1 2.73972603E-07
  1 2.73972603E-07
  1 2.73972603E-07
  1 2.73972603E-07
  1 2.73972603E-07
  1 2.73972603E-07
  1 2.73972603E-07
  1 2.73972603E-07
  1 2.73972603E-07
  1 2.73972603E-07
  1 2.73972603E-07
  1 2.73972603E-07
  1 2.73972603E-07
  1 2.73972603E-07
  1 2.73972603E-07
  1 2.73972603E-07
  1 2.73972603E-07
  1 2.73972603E-07
  1 2.73972603E-07
  1 2.73972603E-07
  1 2.73972603E-07
  1 2.73972603E-07
  1 2.73972603E-07
  1 2.73972603E-07
  1 2.73972603E-07
  1 2.73972603E-07
  1 2.73972603E-07
  1 2.73972603E-07
  1 2.73972603E-07
  1 2.73972603E-07
  1 2.73972603E-07
  1 2.73972603E-07
  1 2.73972603E-07
  1 2.73972603E-07
  1 2.73972603E-07
  1 2.73972603E-07
  1 2.73972603E-07
  1 2.73972603E-07
  1 2.73972603E-07
  1 2.73972603E-07
  1 2.73972603E-07
  1 2.73972603E-07
  1 2.73972603E-07
  1 2.73972603E-07
  1 2.73972603E-07
  1 2.73972603E-07
  1 2.73972603E-07
  1 2.73972603E-07
  1 2.73972603E-07
  1 2.73972603E-07
  1 2.73972603E-07
  1 2.73972603E-07
  1 2.73972603E-07
  1 2.73972603E-07
  1 2.73972603E-07
  1 2.73972603E-07
  1 2.73972603E-07
  1 2.73972603E-07
  1 2.73972603E-07
  1 2.73972603E-07
  1 2.73972603E-07
  1 2.73972603E-07
  1 2.73972603E-07
  1 2.73972603E-07
  1 2.73972603E-07
  1 2.73972603E-07
  1 2.73972603E-07
  1 2.73972603E-07
  1 2.73972603E-07
  1 2.73972603E-07
  1 2.73972603E-07
  1 2.73972603E-07
  1 2.73972603E-07
  1 2.73972603E-07
  1 2.73972603E-07
  1 2.73972603E-07
  1 2.73972603E-07
  1 2.73972603E-07
  1 2.73972603E-07
  1 2.73972603E-07
  1 2.73972603E-07
  1 2.73972603E-07
  1 2.73972603E-07
  1 2.73972603E-07
  1 2.73972603E-07
  1 2.73972603E-07
  1 2.73972603E-07
  1 2.73972603E-07
  1 2.73972603E-07
  1 2.73972603E-07
  1 2.73972603E-07
  1 2.73972603E-07
  1 2.73972603E-07
  1 2.73972603E-07
  1 2.73972603E-07
  1 2.73972603E-07
  1 2.73972603E-07
  1 2.73972603E-07
  1 2.73972603E-07
  1 2.73972603E-07
  1 2.73972603E-07
  1 2.73972603E-07
  1 2.73972603E-07
  1 2.73972603E-07
  1 2.73972603E-07
  1 2.73972603E-07
  1 2.73972603E-07
  1 2.73972603E-07
  1 2.73972603E-07
  1 2.73972603E-07
  1 2.73972603E-07
  1 2.73972603E-07
  1 2.73972603E-07
  1 2.73972603E-07
  1 2.73972603E-07
  1 2.73972603E-07
  1 2.73972603E-07
  1 2.73972603E-07
  1 2.73972603E-07
  1 2.73972603E-07
  1 2.73972603E-07
  1 2.73972603E-07
  1 2.73972603E-07
  1 2.73972603E-07
  1 2.73972603E-07
  1 2.73972603E-07
  1 2.73972603E-07
  1 2.73972603E-07
  1 2.73972603E-07
  1 2.73972603E-07
  1 2.73972603E-07
  1 2.73972603E-07
  1 2.73972603E-07
  1 2.73972603E-07
  1 2.73972603E-07
  1 2.73972603E-07
  1 2.73972603E-07
  1 2.73972603E-07
  1 2.73972603E-07
  1 2.73972603E-07
  1 2.73972603E-07
  1 2.73972603E-07
  1 2.73972603E-07
  1 2.73972603E-07
  1 2.73972603E-07
  1 2.73972603E-07
  1 2.73972603E-07
  1 2.73972603E-07
  1 2.73972603E-07
  1 2.73972603E-07
  1 2.73972603E-07
  1 2.73972603E-07
  1 2.73972603E-07
  1 2.73972603E-07
  1 2.73972603E-07
  1 2.73972603E-07
  1 2.73972603E-07
  1 2.73972603E-07
  1 2.73972603E-07
  1 2.73972603E-07
  1 2.73972603E-07
  1 2.73972603E-07
  1 2.73972603E-07
  1 2.73972603E-07
  1 2.73972603E-07
  1 2.73972603E-07
  1 2.73972603E-07
  1 2.73972603E-07
  1 2.73972603E-07
  1 2.73972603E-07
  1 2.73972603E-07
  1 2.73972603E-07
  1 2.73972603E-07
  1 2.73972603E-07
  1 2.73972603E-07
  1 2.73972603E-07
  1 2.73972603E-07
  1 2.73972603E-07
  1 2.73972603E-07
  1 2.73972603E-07
  1 2.73972603E-07
  1 2.73972603E-07
  1 2.73972603E-07
  1 2.73972603E-07
  1 2.73972603E-07
  1 2.73972603E-07
  1 2.73972603E-07
  1 2.73972603E-07
  1 2.73972603E-07
  1 2.73972603E-07
  1 2.73972603E-07
  1 2.73972603E-07
  1 2.73972603E-07
  1 2.73972603E-07
  1 2.73972603E-07
  1 2.73972603E-07
  1 2.73972603E-07
  1 2.73972603E-07
  1 2.73972603E-07
  1 2.73972603E-07
  1 2.73972603E-07
  1 2.73972603E-07
  1 2.73972603E-07
  1 2.73972603E-07
  1 2.73972603E-07
  1 2.73972603E-07
  1 2.73972603E-07
  1 2.73972603E-07
  1 2.73972603E-07
  1 2.73972603E-07
  1 2.73972603E-07
  1 2.73972603E-07
  1 2.73972603E-07
  1 2.73972603E-07
  1 2.73972603E-07
  1 2.73972603E-07
  1 2.73972603E-07
  1 2.73972603E-07
  1 2.73972603E-07
  1 2.73972603E-07
  1 2.73972603E-07
  1 2.73972603E-07
  1 2.73972603E-07
  1 2.73972603E-07
  1 2.73972603E-07
  1 2.73972603E-07
  1 2.73972603E-07
  1 2.73972603E-07
  1 2.73972603E-07
  1 2.73972603E-07
  1 2.73972603E-07
  1 2.73972603E-07
  1 2.73972603E-07
  1 2.73972603E-07
  1 2.73972603E-07
  1 2.73972603E-07
  1 2.73972603E-07
  1 2.73972603E-07
  1 2.73972603E-07
  1 2.73972603E-07
  1 2.73972603E-07
  1 2.73972603E-07
  1 2.73972603E-07
  1 2.73972603E-07
  1 2.73972603E-07
  1 2.73972603E-07
  1 2.73972603E-07
  1 2.73972603E-07
  1 2.73972603E-07
  1 2.73972603E-07
  1 2.73972603E-07
  1 2.73972603E-07
  1 2.73972603E-07
  1 2.73972603E-07
  1 2.73972603E-07
  1 2.73972603E-07
  1 2.73972603E-07
  1 2.73972603E-07
  1 2.73972603E-07
  1 2.73972603E-07
  1 2.73972603E-07
  1 2.73972603E-07
  1 2.73972603E-07
  1 2.73972603E-07
  1 2.73972603E-07
  1 2.73972603E-07
  1 2.73972603E-07
  1 2.73972603E-07
  1 2.73972603E-07
  1 2.73972603E-07
  1 2.73972603E-07
  1 2.73972603E-07
  1 2.73972603E-07
  1 2.73972603E-07
  1 2.73972603E-07
  1 2.73972603E-07
  1 2.73972603E-07
  1 2.73972603E-07
  1 2.73972603E-07
  1 2.73972603E-07
  1 2.73972603E-07
  1 2.73972603E-07
  1 2.73972603E-07
  1 2.73972603E-07
  1 2.73972603E-07
  1 2.73972603E-07
  1 2.73972603E-07
  1 2.73972603E-07
  1 2.73972603E-07
  1 2.73972603E-07
  1 2.73972603E-07
  1 2.73972603E-07
  1 2.73972603E-07
  1 2.73972603E-07
  1 2.73972603E-07
  1 2.73972603E-07
  1 2.73972603E-07
  1 2.73972603E-07
  1 2.73972603E-07
  1 2.73972603E-07
  1 2.73972603E-07
  1 2.73972603E-07
  1 2.73972603E-07
  1 2.73972603E-07
  1 2.73972603E-07
  1 2.73972603E-07
  1 2.73972603E-07
  1 2.73972603E-07
  1 2.73972603E-07
  1 2.73972603E-07
  1 2.73972603E-07
  1 2.73972603E-07
  1 2.73972603E-07
  1 2.73972603E-07
  1 2.73972603E-07
  1 2.73972603E-07
  1 2.73972603E-07
  1 2.73972603E-07
  1 2.73972603E-07
  1 2.73972603E-07
  1 2.73972603E-07
  1 2.73972603E-07
  1 2.73972603E-07
  1 2.73972603E-07
  1 2.73972603E-07
  1 2.73972603E-07
  1 2.73972603E-07
  1 2.73972603E-07
  1 2.73972603E-07
  1 2.73972603E-07
  1 2.73972603E-07
  1 2.73972603E-07
  1 2.73972603E-07
  1 2.73972603E-07
  1 2.73972603E-07
  1 2.73972603E-07
  1 2.73972603E-07
  1 2.73972603E-07
  1 2.73972603E-07
  1 2.73972603E-07
  1 2.73972603E-07
  1 2.73972603E-07
  1 2.73972603E-07
  1 2.73972603E-07
  1 2.73972603E-07
  1 2.73972603E-07
  1 2.73972603E-07
  1 2.73972603E-07
  1 2.73972603E-07
  1 2.73972603E-07
  1 2.73972603E-07
  1 2.73972603E-07
  1 2.73972603E-07
  1 2.73972603E-07
  1 2.73972603E-07
  1 2.73972603E-07
  1 2.73972603E-07
  1 2.73972603E-07
  1 2.73972603E-07
  1 2.73972603E-07
  1 2.73972603E-07
  1 2.73972603E-07
  1 2.73972603E-07
  1 2.73972603E-07
  1 2.73972603E-07
  1 2.73972603E-07
  1 2.73972603E-07
  1 2.73972603E-07
  1 2.73972603E-07
  1 2.73972603E-07
  1 2.73972603E-07
  1 2.73972603E-07
  1 2.73972603E-07
  1 2.73972603E-07
  1 2.73972603E-07
  1 2.73972603E-07
  1 2.73972603E-07
  1 2.73972603E-07
  1 2.73972603E-07
  1 2.73972603E-07
  1 2.73972603E-07
  1 2.73972603E-07
  1 2.73972603E-07
  1 2.73972603E-07
  1 2.73972603E-07
  1 2.73972603E-07
  1 2.73972603E-07
  1 2.73972603E-07
  1 2.73972603E-07
  1 2.73972603E-07
  1 2.73972603E-07
  1 2.73972603E-07
  1 2.73972603E-07
  1 2.73972603E-07
  1 2.73972603E-07
  1 2.73972603E-07
  1 2.73972603E-07
  1 2.73972603E-07
  1 2.73972603E-07
  1 2.73972603E-07
  1 2.73972603E-07
  1 2.73972603E-07
  1 2.73972603E-07
  1 2.73972603E-07
  1 2.73972603E-07
  1 2.73972603E-07
  1 2.73972603E-07
  1 2.73972603E-07
  1 2.73972603E-07
  1 2.73972603E-07
  1 2.73972603E-07
  1 2.73972603E-07
  1 2.73972603E-07
  1 2.73972603E-07
  1 2.73972603E-07
  1 2.73972603E-07
  1 2.73972603E-07
  1 2.73972603E-07
  1 2.73972603E-07
  1 2.73972603E-07
  1 2.73972603E-07
  1 2.73972603E-07
  1 2.73972603E-07
  1 2.73972603E-07
  1 2.73972603E-07
  1 2.73972603E-07
  1 2.73972603E-07
  1 2.73972603E-07
  1 2.73972603E-07
  1 2.73972603E-07
  1 2.73972603E-07
  1 2.73972603E-07
  1 2.73972603E-07
  1 2.73972603E-07
  1 2.73972603E-07
  1 2.73972603E-07
  1 2.73972603E-07
  1 2.73972603E-07
  1 2.73972603E-07
  1 2.73972603E-07
  1 2.73972603E-07
  1 2.73972603E-07
  1 2.73972603E-07
  1 2.73972603E-07
  1 2.73972603E-07
  1 2.73972603E-07
  1 2.73972603E-07
  1 2.73972603E-07
  1 2.73972603E-07
  1 2.73972603E-07
  1 2.73972603E-07
  1 2.73972603E-07
  1 2.73972603E-07
  1 2.73972603E-07
  1 2.73972603E-07
  1 2.73972603E-07
  1 2.73972603E-07
  1 2.73972603E-07
  1 2.73972603E-07
  1 2.73972603E-07
  1 2.73972603E-07
  1 2.73972603E-07
  1 2.73972603E-07
  1 2.73972603E-07
  1 2.73972603E-07
  1 2.73972603E-07
  1 2.73972603E-07
  1 2.73972603E-07
  1 2.73972603E-07
  1 2.73972603E-07
  1 2.73972603E-07
  1 2.73972603E-07
  1 2.73972603E-07
  1 2.73972603E-07
  1 2.73972603E-07
  1 2.73972603E-07
  1 2.73972603E-07
  1 2.73972603E-07
  1 2.73972603E-07
  1 2.73972603E-07
  1 2.73972603E-07
  1 2.73972603E-07
  1 2.73972603E-07
  1 2.73972603E-07
  1 2.73972603E-07
  1 2.73972603E-07
  1 2.73972603E-07
  1 2.73972603E-07
  1 2.73972603E-07
  1 2.73972603E-07
  1 2.73972603E-07
  1 2.73972603E-07
  1 2.73972603E-07
  1 2.73972603E-07
  1 2.73972603E-07
  1 2.73972603E-07
  1 2.73972603E-07
  1 2.73972603E-07
  1 2.73972603E-07
  1 2.73972603E-07
  1 2.73972603E-07
  1 2.73972603E-07
  1 2.73972603E-07
  1 2.73972603E-07
  1 2.73972603E-07
  1 2.73972603E-07
  1 2.73972603E-07
  1 2.73972603E-07
  1 2.73972603E-07
  1 2.73972603E-07
  1 2.73972603E-07
  1 2.73972603E-07
  1 2.73972603E-07
  1 2.73972603E-07
  1 2.73972603E-07
  1 2.73972603E-07
  1 2.73972603E-07
  1 2.73972603E-07
  1 2.73972603E-07
  1 2.73972603E-07
  1 2.73972603E-07
  1 2.73972603E-07
  1 2.73972603E-07
  1 2.73972603E-07
  1 2.73972603E-07
  1 2.73972603E-07
  1 2.73972603E-07
  1 2.73972603E-07
  1 2.73972603E-07
  1 2.73972603E-07
  1 2.73972603E-07
  1 2.73972603E-07
  1 2.73972603E-07
  1 2.73972603E-07
  1 2.73972603E-07
  1 2.73972603E-07
  1 2.73972603E-07
  1 2.73972603E-07
  1 2.73972603E-07
  1 2.73972603E-07
  1 2.73972603E-07
  1 2.73972603E-07
  1 2.73972603E-07
  1 2.73972603E-07
  1 2.73972603E-07
  1 2.73972603E-07
  1 2.73972603E-07
  1 2.73972603E-07
  1 2.73972603E-07
  1 2.73972603E-07
  1 2.73972603E-07
  1 2.73972603E-07
  1 2.73972603E-07
  1 2.73972603E-07
  1 2.73972603E-07
  1 2.73972603E-07
  1 2.73972603E-07
  1 2.73972603E-07
  1 2.73972603E-07
  1 2.73972603E-07
  1 2.73972603E-07
  1 2.73972603E-07
  1 2.73972603E-07
  1 2.73972603E-07
  1 2.73972603E-07
  1 2.73972603E-07
  1 2.73972603E-07
  1 2.73972603E-07
  1 2.73972603E-07
  1 2.73972603E-07
  1 2.73972603E-07
  1 2.73972603E-07
  1 2.73972603E-07
  1 2.73972603E-07
  1 2.73972603E-07
  1 2.73972603E-07
  1 2.73972603E-07
  1 2.73972603E-07
  1 2.73972603E-07
  1 2.73972603E-07
  1 2.73972603E-07
  1 2.73972603E-07
  1 2.73972603E-07
  1 2.73972603E-07
  1 2.73972603E-07
  1 2.73972603E-07
  1 2.73972603E-07
  1 2.73972603E-07
  1 2.73972603E-07
  1 2.73972603E-07
  1 2.73972603E-07
  1 2.73972603E-07
  1 2.73972603E-07
  1 2.73972603E-07
  1 2.73972603E-07
  1 2.73972603E-07
  1 2.73972603E-07
  1 2.73972603E-07
  1 2.73972603E-07
  1 2.73972603E-07
  1 2.73972603E-07
  1 2.73972603E-07
  1 2.73972603E-07
  1 2.73972603E-07
  1 2.73972603E-07
  1 2.73972603E-07
  1 2.73972603E-07
  1 2.73972603E-07
  1 2.73972603E-07
  1 2.73972603E-07
  1 2.73972603E-07
  1 2.73972603E-07
  1 2.73972603E-07
  1 2.73972603E-07
  1 2.73972603E-07
  1 2.73972603E-07
  1 2.73972603E-07
  1 2.73972603E-07
  1 2.73972603E-07
  1 2.73972603E-07
  1 2.73972603E-07
  1 2.73972603E-07
  1 2.73972603E-07
  1 2.73972603E-07
  1 2.73972603E-07
  1 2.73972603E-07
  1 2.73972603E-07
  1 2.73972603E-07
  1 2.73972603E-07