# File generated by Flopy version 3.9.3 on 07/22/2025 at 09:23:48.
BEGIN options
  PRINT_INPUT
END options

BEGIN continuous  FILEOUT  steadymodel_observations.csv
  OBS1  head  5587
  OBS2  head  9170
  OBS3  head  8721
  OBS5  head  9964
  OBS6  head  9511
  OBS7  head  7628
END continuous  FILEOUT  steadymodel_observations.csv

