# File generated by Flopy version 3.8.2 on 02/18/2025 at 18:21:50.
BEGIN options
END options

BEGIN griddata
  strt
    CONSTANT     -10.00000000
END griddata

