# File generated by Flopy version 3.8.2 on 02/18/2025 at 18:21:47.
BEGIN options
  SAVE_FLOWS
  NEWTON  UNDER_RELAXATION
END options

BEGIN packages
  DISU6  steadymodel.disu  disu
  NPF6  steadymodel.npf  npf
  IC6  steadymodel.ic  ic
  CHD6  steadymodel.chd  chd_0
  RCH6  steadymodel.rch  rch_0
  OBS6  steadymodel  obs_0
  OC6  steadymodel.oc  oc
END packages

