# File generated by Flopy version 3.9.3 on 07/22/2025 at 09:23:48.
BEGIN options
END options

BEGIN dimensions
  MAXBOUND  892
END dimensions

BEGIN period  1
  10684 2.36041277E+01
  13184 2.59441277E+01
  15684 2.88691277E+01
  18184 3.23791277E+01
  20684 3.63991277E+01
  23184 4.31941277E+01
  10634 2.36041277E+01
  13134 2.59441277E+01
  15634 2.88841277E+01
  18134 3.24241277E+01
  20634 3.64441277E+01
  23134 4.31941277E+01
  10584 2.36641277E+01
  13084 2.60041277E+01
  15584 2.89291277E+01
  18084 3.24391277E+01
  20584 3.64441277E+01
  23084 4.31941277E+01
  10534 2.36641277E+01
  13034 2.60041277E+01
  15534 2.89441277E+01
  18034 3.24841277E+01
  20534 3.64891277E+01
  23034 4.31941277E+01
  10484 2.36791277E+01
  12984 2.60491277E+01
  15484 2.89891277E+01
  17984 3.24991277E+01
  20484 3.64891277E+01
  22984 4.31941277E+01
  10434 2.37241277E+01
  12934 2.60641277E+01
  15434 2.90041277E+01
  17934 3.25441277E+01
  20434 3.65341277E+01
  22934 4.31941277E+01
  10384 2.37391277E+01
  12884 2.61091277E+01
  15384 2.90491277E+01
  17884 3.25591277E+01
  20384 3.65341277E+01
  22884 4.31941277E+01
  10334 2.37391277E+01
  12834 2.61091277E+01
  15334 2.90641277E+01
  17834 3.26041277E+01
  20334 3.65791277E+01
  22834 4.31941277E+01
  10284 2.37991277E+01
  12784 2.61691277E+01
  15284 2.91091277E+01
  17784 3.26191277E+01
  20284 3.65791277E+01
  22784 4.31941277E+01
  10234 2.37991277E+01
  12734 2.61691277E+01
  15234 2.91241277E+01
  17734 3.26641277E+01
  20234 3.66241277E+01
  22734 4.31941277E+01
  10184 2.38141277E+01
  12684 2.62141277E+01
  15184 2.91691277E+01
  17684 3.26791277E+01
  20184 3.66241277E+01
  22684 4.31941277E+01
  10134 2.38141277E+01
  12634 2.62141277E+01
  15134 2.91841277E+01
  17634 3.27241277E+01
  20134 3.66691277E+01
  22634 4.31941277E+01
  10084 2.38741277E+01
  12584 2.62741277E+01
  15084 2.92291277E+01
  17584 3.27391277E+01
  20084 3.66691277E+01
  22584 4.31941277E+01
  10034 2.38741277E+01
  12534 2.62741277E+01
  15034 2.92441277E+01
  17534 3.27841277E+01
  20034 3.67141277E+01
  22534 4.31941277E+01
  9984 2.38891277E+01
  12484 2.63191277E+01
  14984 2.92891277E+01
  17484 3.27991277E+01
  19984 3.67141277E+01
  22484 4.31941277E+01
  9934 2.39341277E+01
  12434 2.63341277E+01
  14934 2.93041277E+01
  17434 3.28441277E+01
  19934 3.67591277E+01
  22434 4.31941277E+01
  9884 2.39491277E+01
  12384 2.63791277E+01
  14884 2.93491277E+01
  17384 3.28591277E+01
  19884 3.67591277E+01
  22384 4.31941277E+01
  9834 2.39491277E+01
  12334 2.63791277E+01
  14834 2.93641277E+01
  17334 3.29041277E+01
  19834 3.68041277E+01
  22334 4.31941277E+01
  4100 2.18941277E+01
  9784 2.40091277E+01
  12284 2.64391277E+01
  14784 2.94091277E+01
  17284 3.29191277E+01
  19784 3.68041277E+01
  22284 4.31941277E+01
  4050 2.18941277E+01
  9734 2.40091277E+01
  12234 2.64391277E+01
  14734 2.94241277E+01
  17234 3.29641277E+01
  19734 3.68491277E+01
  22234 4.31941277E+01
  4000 2.18941277E+01
  9684 2.40241277E+01
  12184 2.64841277E+01
  14684 2.94691277E+01
  17184 3.29791277E+01
  19684 3.68491277E+01
  22184 4.31941277E+01
  3950 2.19391277E+01
  9634 2.40691277E+01
  12134 2.64991277E+01
  14634 2.94841277E+01
  17134 3.30241277E+01
  19634 3.68941277E+01
  22134 4.31941277E+01
  3900 2.19391277E+01
  9584 2.40841277E+01
  12084 2.65441277E+01
  14584 2.95291277E+01
  17084 3.30391277E+01
  19584 3.68941277E+01
  22084 4.31941277E+01
  3850 2.19391277E+01
  9534 2.40991277E+01
  12034 2.65891277E+01
  14534 2.95891277E+01
  17034 3.30991277E+01
  19534 3.69391277E+01
  22034 4.31941277E+01
  3800 2.19841277E+01
  9484 2.41441277E+01
  11984 2.66041277E+01
  14484 2.95891277E+01
  16984 3.30991277E+01
  19484 3.69391277E+01
  21984 4.31941277E+01
  3750 2.19841277E+01
  9434 2.41591277E+01
  11934 2.66491277E+01
  14434 2.96491277E+01
  16934 3.31591277E+01
  19434 3.69841277E+01
  21934 4.31941277E+01
  3700 2.19841277E+01
  9384 2.41591277E+01
  11884 2.66491277E+01
  14384 2.96641277E+01
  16884 3.32041277E+01
  19384 3.70291277E+01
  21884 4.31941277E+01
  3650 2.20291277E+01
  9334 2.42191277E+01
  11834 2.67091277E+01
  14334 2.97091277E+01
  16834 3.32191277E+01
  19334 3.70291277E+01
  21834 4.31941277E+01
  3600 2.20291277E+01
  9284 2.42191277E+01
  11784 2.67091277E+01
  14284 2.97241277E+01
  16784 3.32641277E+01
  19284 3.70741277E+01
  21784 4.31941277E+01
  3550 2.20741277E+01
  9234 2.42791277E+01
  11734 2.67691277E+01
  14234 2.97691277E+01
  16734 3.32791277E+01
  19234 3.70741277E+01
  21734 4.31941277E+01
  3500 2.20741277E+01
  9184 2.42941277E+01
  11684 2.68141277E+01
  14184 2.98291277E+01
  16684 3.33391277E+01
  19184 3.71191277E+01
  21684 4.31941277E+01
  3450 2.20741277E+01
  9134 2.42941277E+01
  11634 2.68141277E+01
  14134 2.98441277E+01
  16634 3.33841277E+01
  19134 3.71641277E+01
  21634 4.31941277E+01
  3400 2.21191277E+01
  9084 2.43541277E+01
  11584 2.68741277E+01
  14084 2.98891277E+01
  16584 3.33991277E+01
  19084 3.71641277E+01
  21584 4.31941277E+01
  3350 2.21191277E+01
  9034 2.43691277E+01
  11534 2.69191277E+01
  14034 2.99491277E+01
  16534 3.34591277E+01
  19034 3.72091277E+01
  21534 4.31941277E+01
  3300 2.21641277E+01
  8984 2.44141277E+01
  11484 2.69341277E+01
  13984 2.99641277E+01
  16484 3.35041277E+01
  18984 3.72541277E+01
  21484 4.31941277E+01
  3250 2.21641277E+01
  8934 2.44291277E+01
  11434 2.69791277E+01
  13934 3.00091277E+01
  16434 3.35191277E+01
  18934 3.72541277E+01
  21434 4.31941277E+01
  3200 2.21641277E+01
  8884 2.44291277E+01
  11384 2.69791277E+01
  13884 3.00241277E+01
  16384 3.35641277E+01
  18884 3.72991277E+01
  21384 4.31941277E+01
  3150 2.22091277E+01
  8834 2.44891277E+01
  11334 2.70391277E+01
  13834 3.00691277E+01
  16334 3.35791277E+01
  18834 3.72991277E+01
  21334 4.31941277E+01
  3100 2.22091277E+01
  8784 2.45041277E+01
  11284 2.70841277E+01
  13784 3.01291277E+01
  16284 3.36391277E+01
  18784 3.73441277E+01
  21284 4.31941277E+01
  3050 2.22541277E+01
  8734 2.45491277E+01
  11234 2.70991277E+01
  13734 3.01441277E+01
  16234 3.36841277E+01
  18734 3.73891277E+01
  21234 4.31941277E+01
  3000 2.22541277E+01
  8684 2.45641277E+01
  11184 2.71441277E+01
  13684 3.01891277E+01
  16184 3.36991277E+01
  18684 3.73891277E+01
  21184 4.31941277E+01
  2950 2.22541277E+01
  8634 2.45791277E+01
  11134 2.71891277E+01
  13634 3.02491277E+01
  16134 3.37591277E+01
  18634 3.74341277E+01
  21134 4.31941277E+01
  2900 2.22991277E+01
  8584 2.46241277E+01
  11084 2.72041277E+01
  13584 3.02641277E+01
  16084 3.38041277E+01
  18584 3.74791277E+01
  21084 4.31941277E+01
  2850 2.22991277E+01
  8534 2.46391277E+01
  11034 2.72491277E+01
  13534 3.03091277E+01
  16034 3.38191277E+01
  18534 3.74791277E+01
  21034 4.31941277E+01
  2800 2.22991277E+01
  8484 2.46391277E+01
  10984 2.72491277E+01
  13484 3.03241277E+01
  15984 3.38641277E+01
  18484 3.75241277E+01
  20984 4.31941277E+01
  2750 2.23441277E+01
  8434 2.46991277E+01
  10934 2.73091277E+01
  13434 3.03691277E+01
  15934 3.38791277E+01
  18434 3.75241277E+01
  20934 4.31941277E+01
  2700 2.23441277E+01
  8384 2.46991277E+01
  10884 2.73091277E+01
  13384 3.03841277E+01
  15884 3.39241277E+01
  18384 3.75691277E+01
  20884 4.31941277E+01
  2650 2.23441277E+01
  8334 2.47141277E+01
  10834 2.73541277E+01
  13334 3.04291277E+01
  15834 3.39391277E+01
  18334 3.75691277E+01
  20834 4.31941277E+01
  2600 2.23891277E+01
  8284 2.47741277E+01
  10784 2.74141277E+01
  13284 3.04891277E+01
  15784 3.39991277E+01
  18284 3.76141277E+01
  20784 4.31941277E+01
  6378 -3.98674017E+00
  7970 -3.32674017E+00
  10253 -1.93174017E+00
  12753 1.98259835E-01
  15253 3.01825983E+00
  17753 6.52825983E+00
  20253 1.02482598E+01
  22753 1.61432598E+01
  6351 -3.92674017E+00
  7943 -3.26674017E+00
  10203 -1.87174017E+00
  12703 2.58259835E-01
  15203 3.07825983E+00
  17703 6.58825983E+00
  20203 1.02932598E+01
  22703 1.61432598E+01
  6322 -4.73934881E+00
  7914 -3.95934881E+00
  10152 -2.54934881E+00
  12652 -5.09348805E-01
  15152 2.26565119E+00
  17652 5.77565119E+00
  20152 9.46565119E+00
  22652 1.52706512E+01
  6294 -4.72434881E+00
  7886 -3.91434881E+00
  10102 -2.50434881E+00
  12602 -4.94348805E-01
  15102 2.28065119E+00
  17602 5.82065119E+00
  20102 9.51065119E+00
  22602 1.52706512E+01
  6266 -4.64934881E+00
  7858 -3.80934881E+00
  10052 -2.39934881E+00
  12552 -4.19348805E-01
  15052 2.32565119E+00
  17552 5.83565119E+00
  20052 9.51065119E+00
  22552 1.52706512E+01
  10658 1.38130303E+00
  13158 3.93130303E+00
  15658 6.97630303E+00
  18158 1.05163030E+01
  20658 1.43413030E+01
  23158 2.05063030E+01
  10659 2.11891167E+00
  13159 4.75891167E+00
  15659 7.83391167E+00
  18159 1.13439117E+01
  20659 1.51689117E+01
  23159 2.13789117E+01
  10607 6.58694393E-01
  13107 3.14869439E+00
  15607 6.16369439E+00
  18107 9.70369439E+00
  20607 1.35136944E+01
  23107 1.96336944E+01
  10608 1.44130303E+00
  13108 3.99130303E+00
  15608 7.02130303E+00
  18108 1.05313030E+01
  20608 1.43413030E+01
  23108 2.05063030E+01
  10557 7.63694393E-01
  13057 3.22369439E+00
  15557 6.20869439E+00
  18057 9.71869439E+00
  20557 1.35136944E+01
  23057 1.96336944E+01
  8105 -1.32391425E+00
  10506 4.10857536E-02
  13006 2.44108575E+00
  15506 5.39608575E+00
  18006 8.90608575E+00
  20506 1.26860858E+01
  23006 1.87610858E+01
  10507 8.08694393E-01
  13007 3.23869439E+00
  15507 6.22369439E+00
  18007 9.76369439E+00
  20507 1.35586944E+01
  23007 1.96336944E+01
  8079 -1.26391425E+00
  10456 8.60857536E-02
  12956 2.45608575E+00
  15456 5.41108575E+00
  17956 8.95108575E+00
  20456 1.27310858E+01
  22956 1.87610858E+01
  8052 -1.95652289E+00
  10405 -5.91522886E-01
  12905 1.68847711E+00
  15405 4.59847711E+00
  17905 8.13847711E+00
  20405 1.19034771E+01
  22905 1.78884771E+01
  8053 -1.21891425E+00
  10406 1.46085754E-01
  12906 2.51608575E+00
  15406 5.45608575E+00
  17906 8.96608575E+00
  20406 1.27310858E+01
  22906 1.87610858E+01
  6433 -3.17413153E+00
  8025 -2.63413153E+00
  10354 -1.25413153E+00
  12854 9.65868474E-01
  15354 3.83086847E+00
  17854 7.34086847E+00
  20354 1.10758685E+01
  22854 1.70158685E+01
  8026 -1.91152289E+00
  10355 -5.31522886E-01
  12855 1.74847711E+00
  15355 4.64347711E+00
  17855 8.15347711E+00
  20355 1.19034771E+01
  22855 1.78884771E+01
  6406 -3.15913153E+00
  7998 -2.58913153E+00
  10304 -1.20913153E+00
  12804 9.80868474E-01
  15304 3.83086847E+00
  17804 7.34086847E+00
  20304 1.10758685E+01
  22804 1.70158685E+01
  6379 -3.14413153E+00
  7971 -2.54413153E+00
  10254 -1.14913153E+00
  12754 1.04086847E+00
  15254 3.89086847E+00
  17754 7.40086847E+00
  20254 1.11208685E+01
  22754 1.70158685E+01
  6323 -3.89674017E+00
  7915 -3.17674017E+00
  10153 -1.78174017E+00
  12653 2.88259835E-01
  15153 3.09325983E+00
  17653 6.63325983E+00
  20153 1.03382598E+01
  22653 1.61432598E+01
  6149 -6.21456608E+00
  7741 -5.13456608E+00
  9850 -3.69456608E+00
  12350 -1.89456608E+00
  14850 7.60433915E-01
  17350 4.27043392E+00
  19850 7.90043392E+00
  22350 1.35254339E+01
  6178 -6.22956608E+00
  7770 -5.17956608E+00
  9900 -3.75456608E+00
  12400 -1.95456608E+00
  14900 7.15433915E-01
  17400 4.25543392E+00
  19900 7.90043392E+00
  22400 1.35254339E+01
  6120 -6.19956608E+00
  7712 -5.08956608E+00
  9800 -3.63456608E+00
  12300 -1.83456608E+00
  14800 8.20433915E-01
  17300 4.33043392E+00
  19800 7.94543392E+00
  22300 1.35254339E+01
  6089 -6.96717472E+00
  7681 -5.76717472E+00
  9749 -4.31217472E+00
  12249 -2.60217472E+00
  14749 7.82527570E-03
  17249 3.51782528E+00
  19749 7.11782528E+00
  22249 1.26528253E+01
  6090 -6.12456608E+00
  7682 -4.98456608E+00
  9750 -3.54456608E+00
  12250 -1.80456608E+00
  14750 8.20433915E-01
  17250 4.33043392E+00
  19750 7.94543392E+00
  22250 1.35254339E+01
  6059 -6.95217472E+00
  7651 -5.72217472E+00
  9699 -4.26717472E+00
  12199 -2.58717472E+00
  14699 7.82527570E-03
  17199 3.51782528E+00
  19699 7.11782528E+00
  22199 1.26528253E+01
  6029 -6.92217472E+00
  7621 -5.63217472E+00
  9649 -4.16217472E+00
  12149 -2.51217472E+00
  14649 6.78252757E-02
  17149 3.57782528E+00
  19649 7.16282528E+00
  22149 1.26528253E+01
  6028 -7.76478336E+00
  7620 -6.41478336E+00
  9648 -4.94478336E+00
  12148 -3.35478336E+00
  14648 -8.04783364E-01
  17148 2.70521664E+00
  19648 6.29021664E+00
  22148 1.17802166E+01
  5998 -7.70478336E+00
  7590 -6.35478336E+00
  9598 -4.88478336E+00
  12098 -3.29478336E+00
  14598 -7.44783364E-01
  17098 2.76521664E+00
  19598 6.33521664E+00
  22098 1.17802166E+01
  5967 -7.68978336E+00
  7559 -6.30978336E+00
  9548 -4.83978336E+00
  12048 -3.27978336E+00
  14548 -7.29783364E-01
  17048 2.81021664E+00
  19548 6.38021664E+00
  22048 1.17802166E+01
  5935 -8.51739200E+00
  7527 -7.04739200E+00
  9497 -5.56239200E+00
  11997 -4.06239200E+00
  14497 -1.55739200E+00
  16997 1.95260800E+00
  19497 5.50760800E+00
  21997 1.09076080E+01
  5966 -8.53239200E+00
  7558 -7.09239200E+00
  9547 -5.60739200E+00
  12047 -4.07739200E+00
  14547 -1.55739200E+00
  17047 1.95260800E+00
  19547 5.50760800E+00
  22047 1.09076080E+01
  5903 -9.30000064E+00
  7495 -7.77000064E+00
  9446 -6.28500064E+00
  11946 -4.84500064E+00
  14446 -2.37000064E+00
  16946 1.13999936E+00
  19446 4.67999936E+00
  21946 1.00349994E+01
  5904 -8.44239200E+00
  7496 -6.94239200E+00
  9447 -5.45739200E+00
  11947 -3.98739200E+00
  14447 -1.49739200E+00
  16947 2.01260800E+00
  19447 5.55260800E+00
  21947 1.09076080E+01
  6265 -5.49195744E+00
  7857 -4.59195744E+00
  10051 -3.18195744E+00
  12551 -1.26195744E+00
  15051 1.46804256E+00
  17551 5.00804256E+00
  20051 8.68304256E+00
  22551 1.43980426E+01
  6237 -5.47695744E+00
  7829 -4.54695744E+00
  10001 -3.12195744E+00
  12501 -1.20195744E+00
  15001 1.51304256E+00
  17501 5.02304256E+00
  20001 8.68304256E+00
  22501 1.43980426E+01
  6208 -5.46195744E+00
  7800 -4.50195744E+00
  9951 -3.07695744E+00
  12451 -1.18695744E+00
  14951 1.52804256E+00
  17451 5.06804256E+00
  19951 8.72804256E+00
  22451 1.43980426E+01
  6179 -5.38695744E+00
  7771 -4.39695744E+00
  9901 -2.97195744E+00
  12401 -1.11195744E+00
  14901 1.57304256E+00
  17401 5.08304256E+00
  19901 8.72804256E+00
  22401 1.43980426E+01
  5807 -1.09552179E+01
  7399 -9.24521792E+00
  9294 -7.73021792E+00
  11794 -6.41021792E+00
  14294 -3.99521792E+00
  16794 -4.85217923E-01
  19294 3.02478208E+00
  21794 8.28978208E+00
  5872 -9.28500064E+00
  7464 -7.72500064E+00
  9396 -6.24000064E+00
  11896 -4.83000064E+00
  14396 -2.35500064E+00
  16896 1.18499936E+00
  19396 4.72499936E+00
  21896 1.00349994E+01
  5841 -9.27000064E+00
  7433 -7.68000064E+00
  9346 -6.18000064E+00
  11846 -4.77000064E+00
  14346 -2.31000064E+00
  16846 1.19999936E+00
  19346 4.72499936E+00
  21846 1.00349994E+01
  5840 -1.01126093E+01
  7432 -8.46260928E+00
  9345 -6.96260928E+00
  11845 -5.61260928E+00
  14345 -3.16760928E+00
  16845 3.72390717E-01
  19345 3.89739072E+00
  21845 9.16239072E+00
  5808 -1.00976093E+01
  7400 -8.41760928E+00
  9295 -6.90260928E+00
  11795 -5.55260928E+00
  14295 -3.12260928E+00
  16795 3.87390717E-01
  19295 3.89739072E+00
  21795 9.16239072E+00
  5743 -1.08802179E+01
  7335 -9.14021792E+00
  9194 -7.62521792E+00
  11694 -6.33521792E+00
  14194 -3.93521792E+00
  16694 -4.25217923E-01
  19194 3.06978208E+00
  21694 8.28978208E+00
  5775 -1.08952179E+01
  7367 -9.18521792E+00
  9244 -7.68521792E+00
  11744 -6.39521792E+00
  14244 -3.98021792E+00
  16744 -4.40217923E-01
  19244 3.06978208E+00
  21744 8.28978208E+00
  5742 -1.17378266E+01
  7334 -9.96782656E+00
  9193 -8.45282656E+00
  11693 -7.19282656E+00
  14193 -4.80782656E+00
  16693 -1.29782656E+00
  19193 2.19717344E+00
  21693 7.41717344E+00
  5710 -1.17378266E+01
  7302 -9.96782656E+00
  9143 -8.45282656E+00
  11643 -7.19282656E+00
  14143 -4.80782656E+00
  16643 -1.29782656E+00
  19143 2.19717344E+00
  21643 7.41717344E+00
  5678 -1.17228266E+01
  7270 -9.92282656E+00
  9093 -8.40782656E+00
  11593 -7.17782656E+00
  14093 -4.79282656E+00
  16593 -1.25282656E+00
  19093 2.24217344E+00
  21593 7.41717344E+00
  5677 -1.25804352E+01
  7269 -1.07504352E+01
  9092 -9.22043520E+00
  11592 -7.99043520E+00
  14092 -5.62043520E+00
  16592 -2.11043520E+00
  19092 1.36956480E+00
  21592 6.54456480E+00
  5644 -1.25804352E+01
  7236 -1.07504352E+01
  9042 -9.22043520E+00
  11542 -7.99043520E+00
  14042 -5.62043520E+00
  16542 -2.11043520E+00
  19042 1.36956480E+00
  21542 6.54456480E+00
  5576 -1.34380438E+01
  7168 -1.15780438E+01
  8941 -1.00480438E+01
  11441 -8.84804384E+00
  13941 -6.47804384E+00
  16441 -2.93804384E+00
  18941 5.41956158E-01
  21441 5.67195616E+00
  5643 -1.34380438E+01
  7235 -1.15780438E+01
  9041 -1.00480438E+01
  11541 -8.84804384E+00
  14041 -6.49304384E+00
  16541 -2.98304384E+00
  19041 4.96956158E-01
  21541 5.67195616E+00
  5610 -1.34380438E+01
  7202 -1.15780438E+01
  8991 -1.00480438E+01
  11491 -8.84804384E+00
  13991 -6.49304384E+00
  16491 -2.98304384E+00
  18991 4.96956158E-01
  21491 5.67195616E+00
  5575 -1.42956525E+01
  7167 -1.24056525E+01
  8940 -1.08756525E+01
  11440 -9.70565248E+00
  13940 -7.35065248E+00
  16440 -3.81065248E+00
  18940 -3.30652482E-01
  21440 4.79934752E+00
  5541 -1.42956525E+01
  7133 -1.24056525E+01
  8890 -1.08606525E+01
  11390 -9.66065248E+00
  13890 -7.30565248E+00
  16390 -3.79565248E+00
  18890 -3.30652482E-01
  21390 4.79934752E+00
  5506 -1.42956525E+01
  7098 -1.24056525E+01
  8840 -1.08606525E+01
  11340 -9.66065248E+00
  13840 -7.30565248E+00
  16340 -3.79565248E+00
  18840 -3.30652482E-01
  21340 4.79934752E+00
  5505 -1.51532611E+01
  7097 -1.32332611E+01
  8839 -1.16882611E+01
  11339 -1.05182611E+01
  13839 -8.17826112E+00
  16339 -4.66826112E+00
  18839 -1.20326112E+00
  21339 3.92673888E+00
  5470 -1.51532611E+01
  7062 -1.32332611E+01
  8789 -1.16882611E+01
  11289 -1.05182611E+01
  13789 -8.17826112E+00
  16289 -4.66826112E+00
  18789 -1.20326112E+00
  21289 3.92673888E+00
  5469 -1.60108698E+01
  7061 -1.40608698E+01
  8788 -1.25158698E+01
  11288 -1.13758698E+01
  13788 -9.03586976E+00
  16288 -5.49586976E+00
  18788 -2.03086976E+00
  21288 3.05413024E+00
  5433 -1.60108698E+01
  7025 -1.40608698E+01
  8738 -1.25158698E+01
  11238 -1.13758698E+01
  13738 -9.03586976E+00
  16238 -5.49586976E+00
  18738 -2.03086976E+00
  21238 3.05413024E+00
  5395 -1.68534784E+01
  6987 -1.48434784E+01
  8687 -1.32834784E+01
  11187 -1.21734784E+01
  13687 -9.86347840E+00
  16187 -6.35347840E+00
  18687 -2.90347840E+00
  21187 2.18152160E+00
  5358 -1.68534784E+01
  6950 -1.48434784E+01
  8637 -1.32834784E+01
  11137 -1.21734784E+01
  13637 -9.86347840E+00
  16137 -6.35347840E+00
  18637 -2.90347840E+00
  21137 2.18152160E+00
  5320 -1.68534784E+01
  6912 -1.48434784E+01
  8587 -1.32834784E+01
  11087 -1.21734784E+01
  13587 -9.84847840E+00
  16087 -6.30847840E+00
  18587 -2.85847840E+00
  21087 2.18152160E+00
  5396 -1.60108698E+01
  6988 -1.40608698E+01
  8688 -1.25008698E+01
  11188 -1.13308698E+01
  13688 -8.99086976E+00
  16188 -5.48086976E+00
  18688 -2.03086976E+00
  21188 3.05413024E+00
  5281 -1.76960870E+01
  6873 -1.56260870E+01
  8536 -1.40510870E+01
  11036 -1.29710870E+01
  13536 -1.06760870E+01
  16036 -7.16608704E+00
  18536 -3.73108704E+00
  21036 1.30891296E+00
  5282 -1.68534784E+01
  6874 -1.48434784E+01
  8537 -1.32684784E+01
  11037 -1.21284784E+01
  13537 -9.80347840E+00
  16037 -6.29347840E+00
  18537 -2.85847840E+00
  21037 2.18152160E+00
  5242 -1.76960870E+01
  6834 -1.56260870E+01
  8486 -1.40510870E+01
  10986 -1.29710870E+01
  13486 -1.06610870E+01
  15986 -7.12108704E+00
  18486 -3.68608704E+00
  20986 1.30891296E+00
  5203 -1.76810870E+01
  6795 -1.55810870E+01
  8436 -1.39910870E+01
  10936 -1.29110870E+01
  13436 -1.06160870E+01
  15936 -7.10608704E+00
  18436 -3.68608704E+00
  20936 1.30891296E+00
  5164 -1.76810870E+01
  6756 -1.55810870E+01
  8386 -1.39910870E+01
  10886 -1.29110870E+01
  13386 -1.06160870E+01
  15886 -7.10608704E+00
  18386 -3.68608704E+00
  20886 1.30891296E+00
  5163 -1.85236957E+01
  6755 -1.63636957E+01
  8385 -1.47736957E+01
  10885 -1.37536957E+01
  13385 -1.14886957E+01
  15885 -7.97869568E+00
  18385 -4.55869568E+00
  20885 4.36304320E-01
  5123 -1.85236957E+01
  6715 -1.63636957E+01
  8335 -1.47736957E+01
  10835 -1.37536957E+01
  13335 -1.14736957E+01
  15835 -7.93369568E+00
  18335 -4.51369568E+00
  20835 4.36304320E-01
  5083 -1.84636957E+01
  6675 -1.63036957E+01
  8285 -1.47136957E+01
  10785 -1.36936957E+01
  13285 -1.14286957E+01
  15785 -7.91869568E+00
  18285 -4.51369568E+00
  20785 4.36304320E-01
  5042 -1.84636957E+01
  6634 -1.63036957E+01
  8235 -1.47136957E+01
  10735 -1.36936957E+01
  13235 -1.14136957E+01
  15735 -7.87369568E+00
  18235 -4.46869568E+00
  20735 4.36304320E-01
END period  1

