# File generated by Flopy version 3.9.3 on 07/21/2025 at 23:03:42.
BEGIN options
END options

BEGIN griddata
  strt
    CONSTANT     -10.00000000
END griddata

