# File generated by Flopy version 3.9.3 on 07/22/2025 at 09:23:48.
BEGIN options
END options

BEGIN griddata
  strt
    CONSTANT     -10.00000000
END griddata

