# File generated by Flopy version 3.9.3 on 07/21/2025 at 23:03:42.
BEGIN options
  BUDGET  FILEOUT  steadymodel.bud
  HEAD  FILEOUT  steadymodel.hds
END options

BEGIN period  1
  SAVE  HEAD  LAST
  SAVE  BUDGET  ALL
END period  1

