# File generated by Flopy version 3.9.3 on 07/21/2025 at 23:03:42.
BEGIN options
END options

BEGIN dimensions
  MAXBOUND  1337
END dimensions

BEGIN period  1
  1 2.73972603E-07
  1 2.73972603E-07
  1 2.73972603E-07
  1 2.73972603E-07
  1 2.73972603E-07
  1 2.73972603E-07
  1 2.73972603E-07
  1 2.73972603E-07
  1 2.73972603E-07
  1 2.73972603E-07
  1 2.73972603E-07
  1 2.73972603E-07
  1 2.73972603E-07
  1 2.73972603E-07
  1 2.73972603E-07
  1 2.73972603E-07
  1 2.73972603E-07
  1 2.73972603E-07
  1 2.73972603E-07
  1 2.73972603E-07
  1 2.73972603E-07
  1 2.73972603E-07
  1 2.73972603E-07
  1 2.73972603E-07
  1 2.73972603E-07
  1 2.73972603E-07
  1 2.73972603E-07
  1 2.73972603E-07
  1 2.73972603E-07
  1 2.73972603E-07
  1 2.73972603E-07
  1 2.73972603E-07
  1 2.73972603E-07
  1 2.73972603E-07
  1 2.73972603E-07
  1 2.73972603E-07
  1 2.73972603E-07
  1 2.73972603E-07
  1 2.73972603E-07
  1 2.73972603E-07
  1 2.73972603E-07
  1 2.73972603E-07
  1 2.73972603E-07
  1 2.73972603E-07
  1 2.73972603E-07
  1 2.73972603E-07
  1 2.73972603E-07
  1 2.73972603E-07
  1 2.73972603E-07
  1 2.73972603E-07
  1 2.73972603E-07
  1 2.73972603E-07
  1 2.73972603E-07
  1 2.73972603E-07
  1 2.73972603E-07
  1 2.73972603E-07
  1 2.73972603E-07
  1 2.73972603E-07
  1 2.73972603E-07
  1 2.73972603E-07
  1 2.73972603E-07
  1 2.73972603E-07
  1 2.73972603E-07
  1 2.73972603E-07
  1 2.73972603E-07
  1 2.73972603E-07
  1 2.73972603E-07
  1 2.73972603E-07
  1 2.73972603E-07
  1 2.73972603E-07
  1 2.73972603E-07
  1 2.73972603E-07
  1 2.73972603E-07
  1 2.73972603E-07
  1 2.73972603E-07
  1 2.73972603E-07
  1 2.73972603E-07
  1 2.73972603E-07
  1 2.73972603E-07
  1 2.73972603E-07
  1 2.73972603E-07
  1 2.73972603E-07
  1 2.73972603E-07
  1 2.73972603E-07
  1 2.73972603E-07
  1 2.73972603E-07
  1 2.73972603E-07
  1 2.73972603E-07
  1 2.73972603E-07
  1 2.73972603E-07
  1 2.73972603E-07
  1 2.73972603E-07
  1 2.73972603E-07
  1 2.73972603E-07
  1 2.73972603E-07
  1 2.73972603E-07
  1 2.73972603E-07
  1 2.73972603E-07
  1 2.73972603E-07
  1 2.73972603E-07
  1 2.73972603E-07
  1 2.73972603E-07
  1 2.73972603E-07
  1 2.73972603E-07
  1 2.73972603E-07
  1 2.73972603E-07
  1 2.73972603E-07
  1 2.73972603E-07
  1 2.73972603E-07
  1 2.73972603E-07
  1 2.73972603E-07
  1 2.73972603E-07
  1 2.73972603E-07
  1 2.73972603E-07
  1 2.73972603E-07
  1 2.73972603E-07
  1 2.73972603E-07
  1 2.73972603E-07
  1 2.73972603E-07
  1 2.73972603E-07
  1 2.73972603E-07
  1 2.73972603E-07
  1 2.73972603E-07
  1 2.73972603E-07
  1 2.73972603E-07
  1 2.73972603E-07
  1 2.73972603E-07
  1 2.73972603E-07
  1 2.73972603E-07
  1 2.73972603E-07
  1 2.73972603E-07
  1 2.73972603E-07
  1 2.73972603E-07
  1 2.73972603E-07
  1 2.73972603E-07
  1 2.73972603E-07
  1 2.73972603E-07
  1 2.73972603E-07
  1 2.73972603E-07
  1 2.73972603E-07
  1 2.73972603E-07
  1 2.73972603E-07
  1 2.73972603E-07
  1 2.73972603E-07
  1 2.73972603E-07
  1 2.73972603E-07
  1 2.73972603E-07
  1 2.73972603E-07
  1 2.73972603E-07
  1 2.73972603E-07
  1 2.73972603E-07
  1 2.73972603E-07
  1 2.73972603E-07
  1 2.73972603E-07
  1 2.73972603E-07
  1 2.73972603E-07
  1 2.73972603E-07
  1 2.73972603E-07
  1 2.73972603E-07
  1 2.73972603E-07
  1 2.73972603E-07
  1 2.73972603E-07
  1 2.73972603E-07
  1 2.73972603E-07
  1 2.73972603E-07
  1 2.73972603E-07
  1 2.73972603E-07
  1 2.73972603E-07
  1 2.73972603E-07
  1 2.73972603E-07
  1 2.73972603E-07
  1 2.73972603E-07
  1 2.73972603E-07
  1 2.73972603E-07
  1 2.73972603E-07
  1 2.73972603E-07
  1 2.73972603E-07
  1 2.73972603E-07
  1 2.73972603E-07
  1 2.73972603E-07
  1 2.73972603E-07
  1 2.73972603E-07
  1 2.73972603E-07
  1 2.73972603E-07
  1 2.73972603E-07
  1 2.73972603E-07
  1 2.73972603E-07
  1 2.73972603E-07
  1 2.73972603E-07
  1 2.73972603E-07
  1 2.73972603E-07
  1 2.73972603E-07
  1 2.73972603E-07
  1 2.73972603E-07
  1 2.73972603E-07
  1 2.73972603E-07
  1 2.73972603E-07
  1 2.73972603E-07
  1 2.73972603E-07
  1 2.73972603E-07
  1 2.73972603E-07
  1 2.73972603E-07
  1 2.73972603E-07
  1 2.73972603E-07
  1 2.73972603E-07
  1 2.73972603E-07
  1 2.73972603E-07
  1 2.73972603E-07
  1 2.73972603E-07
  1 2.73972603E-07
  1 2.73972603E-07
  1 2.73972603E-07
  1 2.73972603E-07
  1 2.73972603E-07
  1 2.73972603E-07
  1 2.73972603E-07
  1 2.73972603E-07
  1 2.73972603E-07
  1 2.73972603E-07
  1 2.73972603E-07
  1 2.73972603E-07
  1 2.73972603E-07
  1 2.73972603E-07
  1 2.73972603E-07
  1 2.73972603E-07
  1 2.73972603E-07
  1 2.73972603E-07
  1 2.73972603E-07
  1 2.73972603E-07
  1 2.73972603E-07
  1 2.73972603E-07
  1 2.73972603E-07
  1 2.73972603E-07
  1 2.73972603E-07
  1 2.73972603E-07
  1 2.73972603E-07
  1 2.73972603E-07
  1 2.73972603E-07
  1 2.73972603E-07
  1 2.73972603E-07
  1 2.73972603E-07
  1 2.73972603E-07
  1 2.73972603E-07
  1 2.73972603E-07
  1 2.73972603E-07
  1 2.73972603E-07
  1 2.73972603E-07
  1 2.73972603E-07
  1 2.73972603E-07
  1 2.73972603E-07
  1 2.73972603E-07
  1 2.73972603E-07
  1 2.73972603E-07
  1 2.73972603E-07
  1 2.73972603E-07
  1 2.73972603E-07
  1 2.73972603E-07
  1 2.73972603E-07
  1 2.73972603E-07
  1 2.73972603E-07
  1 2.73972603E-07
  1 2.73972603E-07
  1 2.73972603E-07
  1 2.73972603E-07
  1 2.73972603E-07
  1 2.73972603E-07
  1 2.73972603E-07
  1 2.73972603E-07
  1 2.73972603E-07
  1 2.73972603E-07
  1 2.73972603E-07
  1 2.73972603E-07
  1 2.73972603E-07
  1 2.73972603E-07
  1 2.73972603E-07
  1 2.73972603E-07
  1 2.73972603E-07
  1 2.73972603E-07
  1 2.73972603E-07
  1 2.73972603E-07
  1 2.73972603E-07
  1 2.73972603E-07
  1 2.73972603E-07
  1 2.73972603E-07
  1 2.73972603E-07
  1 2.73972603E-07
  1 2.73972603E-07
  1 2.73972603E-07
  1 2.73972603E-07
  1 2.73972603E-07
  1 2.73972603E-07
  1 2.73972603E-07
  1 2.73972603E-07
  1 2.73972603E-07
  1 2.73972603E-07
  1 2.73972603E-07
  1 2.73972603E-07
  1 2.73972603E-07
  1 2.73972603E-07
  1 2.73972603E-07
  1 2.73972603E-07
  1 2.73972603E-07
  1 2.73972603E-07
  1 2.73972603E-07
  1 2.73972603E-07
  1 2.73972603E-07
  1 2.73972603E-07
  1 2.73972603E-07
  1 2.73972603E-07
  1 2.73972603E-07
  1 2.73972603E-07
  1 2.73972603E-07
  1 2.73972603E-07
  1 2.73972603E-07
  1 2.73972603E-07
  1 2.73972603E-07
  1 2.73972603E-07
  1 2.73972603E-07
  1 2.73972603E-07
  1 2.73972603E-07
  1 2.73972603E-07
  1 2.73972603E-07
  1 2.73972603E-07
  1 2.73972603E-07
  1 2.73972603E-07
  1 2.73972603E-07
  1 2.73972603E-07
  1 2.73972603E-07
  1 2.73972603E-07
  1 2.73972603E-07
  1 2.73972603E-07
  1 2.73972603E-07
  1 2.73972603E-07
  1 2.73972603E-07
  1 2.73972603E-07
  1 2.73972603E-07
  1 2.73972603E-07
  1 2.73972603E-07
  1 2.73972603E-07
  1 2.73972603E-07
  1 2.73972603E-07
  1 2.73972603E-07
  1 2.73972603E-07
  1 2.73972603E-07
  1 2.73972603E-07
  1 2.73972603E-07
  1 2.73972603E-07
  1 2.73972603E-07
  1 2.73972603E-07
  1 2.73972603E-07
  1 2.73972603E-07
  1 2.73972603E-07
  1 2.73972603E-07
  1 2.73972603E-07
  1 2.73972603E-07
  1 2.73972603E-07
  1 2.73972603E-07
  1 2.73972603E-07
  1 2.73972603E-07
  1 2.73972603E-07
  1 2.73972603E-07
  1 2.73972603E-07
  1 2.73972603E-07
  1 2.73972603E-07
  1 2.73972603E-07
  1 2.73972603E-07
  1 2.73972603E-07
  1 2.73972603E-07
  1 2.73972603E-07
  1 2.73972603E-07
  1 2.73972603E-07
  1 2.73972603E-07
  1 2.73972603E-07
  1 2.73972603E-07
  1 2.73972603E-07
  1 2.73972603E-07
  1 2.73972603E-07
  1 2.73972603E-07
  1 2.73972603E-07
  1 2.73972603E-07
  1 2.73972603E-07
  1 2.73972603E-07
  1 2.73972603E-07
  1 2.73972603E-07
  1 2.73972603E-07
  1 2.73972603E-07
  1 2.73972603E-07
  1 2.73972603E-07
  1 2.73972603E-07
  1 2.73972603E-07
  1 2.73972603E-07
  1 2.73972603E-07
  1 2.73972603E-07
  1 2.73972603E-07
  1 2.73972603E-07
  1 2.73972603E-07
  1 2.73972603E-07
  1 2.73972603E-07
  1 2.73972603E-07
  1 2.73972603E-07
  1 2.73972603E-07
  1 2.73972603E-07
  1 2.73972603E-07
  1 2.73972603E-07
  1 2.73972603E-07
  1 2.73972603E-07
  1 2.73972603E-07
  1 2.73972603E-07
  1 2.73972603E-07
  1 2.73972603E-07
  1 2.73972603E-07
  1 2.73972603E-07
  1 2.73972603E-07
  1 2.73972603E-07
  1 2.73972603E-07
  1 2.73972603E-07
  1 2.73972603E-07
  1 2.73972603E-07
  1 2.73972603E-07
  1 2.73972603E-07
  1 2.73972603E-07
  1 2.73972603E-07
  1 2.73972603E-07
  1 2.73972603E-07
  1 2.73972603E-07
  1 2.73972603E-07
  1 2.73972603E-07
  1 2.73972603E-07
  1 2.73972603E-07
  1 2.73972603E-07
  1 2.73972603E-07
  1 2.73972603E-07
  1 2.73972603E-07
  1 2.73972603E-07
  1 2.73972603E-07
  1 2.73972603E-07
  1 2.73972603E-07
  1 2.73972603E-07
  1 2.73972603E-07
  1 2.73972603E-07
  1 2.73972603E-07
  1 2.73972603E-07
  1 2.73972603E-07
  1 2.73972603E-07
  1 2.73972603E-07
  1 2.73972603E-07
  1 2.73972603E-07
  1 2.73972603E-07
  1 2.73972603E-07
  1 2.73972603E-07
  1 2.73972603E-07
  1 2.73972603E-07
  1 2.73972603E-07
  1 2.73972603E-07
  1 2.73972603E-07
  1 2.73972603E-07
  1 2.73972603E-07
  1 2.73972603E-07
  1 2.73972603E-07
  1 2.73972603E-07
  1 2.73972603E-07
  1 2.73972603E-07
  1 2.73972603E-07
  1 2.73972603E-07
  1 2.73972603E-07
  1 2.73972603E-07
  1 2.73972603E-07
  1 2.73972603E-07
  1 2.73972603E-07
  1 2.73972603E-07
  1 2.73972603E-07
  1 2.73972603E-07
  1 2.73972603E-07
  1 2.73972603E-07
  1 2.73972603E-07
  1 2.73972603E-07
  1 2.73972603E-07
  1 2.73972603E-07
  1 2.73972603E-07
  1 2.73972603E-07
  1 2.73972603E-07
  1 2.73972603E-07
  1 2.73972603E-07
  1 2.73972603E-07
  1 2.73972603E-07
  1 2.73972603E-07
  1 2.73972603E-07
  1 2.73972603E-07
  1 2.73972603E-07
  1 2.73972603E-07
  1 2.73972603E-07
  1 2.73972603E-07
  1 2.73972603E-07
  1 2.73972603E-07
  1 2.73972603E-07
  1 2.73972603E-07
  1 2.73972603E-07
  1 2.73972603E-07
  1 2.73972603E-07
  1 2.73972603E-07
  1 2.73972603E-07
  1 2.73972603E-07
  1 2.73972603E-07
  1 2.73972603E-07
  1 2.73972603E-07
  1 2.73972603E-07
  1 2.73972603E-07
  1 2.73972603E-07
  1 2.73972603E-07
  1 2.73972603E-07
  1 2.73972603E-07
  1 2.73972603E-07
  1 2.73972603E-07
  1 2.73972603E-07
  1 2.73972603E-07
  1 2.73972603E-07
  1 2.73972603E-07
  1 2.73972603E-07
  1 2.73972603E-07
  1 2.73972603E-07
  1 2.73972603E-07
  1 2.73972603E-07
  1 2.73972603E-07
  1 2.73972603E-07
  1 2.73972603E-07
  1 2.73972603E-07
  1 2.73972603E-07
  1 2.73972603E-07
  1 2.73972603E-07
  1 2.73972603E-07
  1 2.73972603E-07
  1 2.73972603E-07
  1 2.73972603E-07
  1 2.73972603E-07
  1 2.73972603E-07
  1 2.73972603E-07
  1 2.73972603E-07
  1 2.73972603E-07
  1 2.73972603E-07
  1 2.73972603E-07
  1 2.73972603E-07
  1 2.73972603E-07
  1 2.73972603E-07
  1 2.73972603E-07
  1 2.73972603E-07
  1 2.73972603E-07
  1 2.73972603E-07
  1 2.73972603E-07
  1 2.73972603E-07
  1 2.73972603E-07
  1 2.73972603E-07
  1 2.73972603E-07
  1 2.73972603E-07
  1 2.73972603E-07
  1 2.73972603E-07
  1 2.73972603E-07
  1 2.73972603E-07
  1 2.73972603E-07
  1 2.73972603E-07
  1 2.73972603E-07
  1 2.73972603E-07
  1 2.73972603E-07
  1 2.73972603E-07
  1 2.73972603E-07
  1 2.73972603E-07
  1 2.73972603E-07
  1 2.73972603E-07
  1 2.73972603E-07
  1 2.73972603E-07
  1 2.73972603E-07
  1 2.73972603E-07
  1 2.73972603E-07
  1 2.73972603E-07
  1 2.73972603E-07
  1 2.73972603E-07
  1 2.73972603E-07
  1 2.73972603E-07
  1 2.73972603E-07
  1 2.73972603E-07
  1 2.73972603E-07
  1 2.73972603E-07
  1 2.73972603E-07
  1 2.73972603E-07
  1 2.73972603E-07
  1 2.73972603E-07
  1 2.73972603E-07
  1 2.73972603E-07
  1 2.73972603E-07
  1 2.73972603E-07
  1 2.73972603E-07
  1 2.73972603E-07
  1 2.73972603E-07
  1 2.73972603E-07
  1 2.73972603E-07
  1 2.73972603E-07
  1 2.73972603E-07
  1 2.73972603E-07
  1 2.73972603E-07
  1 2.73972603E-07
  1 2.73972603E-07
  1 2.73972603E-07
  1 2.73972603E-07
  1 2.73972603E-07
  1 2.73972603E-07
  1 2.73972603E-07
  1 2.73972603E-07
  1 2.73972603E-07
  1 2.73972603E-07
  1 2.73972603E-07
  1 2.73972603E-07
  1 2.73972603E-07
  1 2.73972603E-07
  1 2.73972603E-07
  1 2.73972603E-07
  1 2.73972603E-07
  1 2.73972603E-07
  1 2.73972603E-07
  1 2.73972603E-07
  1 2.73972603E-07
  1 2.73972603E-07
  1 2.73972603E-07
  1 2.73972603E-07
  1 2.73972603E-07
  1 2.73972603E-07
  1 2.73972603E-07
  1 2.73972603E-07
  1 2.73972603E-07
  1 2.73972603E-07
  1 2.73972603E-07
  1 2.73972603E-07
  1 2.73972603E-07
  1 2.73972603E-07
  1 2.73972603E-07
  1 2.73972603E-07
  1 2.73972603E-07
  1 2.73972603E-07
  1 2.73972603E-07
  1 2.73972603E-07
  1 2.73972603E-07
  1 2.73972603E-07
  1 2.73972603E-07
  1 2.73972603E-07
  1 2.73972603E-07
  1 2.73972603E-07
  1 2.73972603E-07
  1 2.73972603E-07
  1 2.73972603E-07
  1 2.73972603E-07
  1 2.73972603E-07
  1 2.73972603E-07
  1 2.73972603E-07
  1 2.73972603E-07
  1 2.73972603E-07
  1 2.73972603E-07
  1 2.73972603E-07
  1 2.73972603E-07
  1 2.73972603E-07
  1 2.73972603E-07
  1 2.73972603E-07
  1 2.73972603E-07
  1 2.73972603E-07
  1 2.73972603E-07
  1 2.73972603E-07
  1 2.73972603E-07
  1 2.73972603E-07
  1 2.73972603E-07
  1 2.73972603E-07
  1 2.73972603E-07
  1 2.73972603E-07
  1 2.73972603E-07
  1 2.73972603E-07
  1 2.73972603E-07
  1 2.73972603E-07
  1 2.73972603E-07
  1 2.73972603E-07
  1 2.73972603E-07
  1 2.73972603E-07
  1 2.73972603E-07
  1 2.73972603E-07
  1 2.73972603E-07
  1 2.73972603E-07
  1 2.73972603E-07
  1 2.73972603E-07
  1 2.73972603E-07
  1 2.73972603E-07
  1 2.73972603E-07
  1 2.73972603E-07
  1 2.73972603E-07
  1 2.73972603E-07
  1 2.73972603E-07
  1 2.73972603E-07
  1 2.73972603E-07
  1 2.73972603E-07
  1 2.73972603E-07
  1 2.73972603E-07
  1 2.73972603E-07
  1 2.73972603E-07
  1 2.73972603E-07
  1 2.73972603E-07
  1 2.73972603E-07
  1 2.73972603E-07
  1 2.73972603E-07
  1 2.73972603E-07
  1 2.73972603E-07
  1 2.73972603E-07
  1 2.73972603E-07
  1 2.73972603E-07
  1 2.73972603E-07
  1 2.73972603E-07
  1 2.73972603E-07
  1 2.73972603E-07
  1 2.73972603E-07
  1 2.73972603E-07
  1 2.73972603E-07
  1 2.73972603E-07
  1 2.73972603E-07
  1 2.73972603E-07
  1 2.73972603E-07
  1 2.73972603E-07
  1 2.73972603E-07
  1 2.73972603E-07
  1 2.73972603E-07
  1 2.73972603E-07
  1 2.73972603E-07
  1 2.73972603E-07
  1 2.73972603E-07
  1 2.73972603E-07
  1 2.73972603E-07
  1 2.73972603E-07
  1 2.73972603E-07
  1 2.73972603E-07
  1 2.73972603E-07
  1 2.73972603E-07
  1 2.73972603E-07
  1 2.73972603E-07
  1 2.73972603E-07
  1 2.73972603E-07
  1 2.73972603E-07
  1 2.73972603E-07
  1 2.73972603E-07
  1 2.73972603E-07
  1 2.73972603E-07
  1 2.73972603E-07
  1 2.73972603E-07
  1 2.73972603E-07
  1 2.73972603E-07
  1 2.73972603E-07
  1 2.73972603E-07
  1 2.73972603E-07
  1 2.73972603E-07
  1 2.73972603E-07
  1 2.73972603E-07
  1 2.73972603E-07
  1 2.73972603E-07
  1 2.73972603E-07
  1 2.73972603E-07
  1 2.73972603E-07
  1 2.73972603E-07
  1 2.73972603E-07
  1 2.73972603E-07
  1 2.73972603E-07
  1 2.73972603E-07
  1 2.73972603E-07
  1 2.73972603E-07
  1 2.73972603E-07
  1 2.73972603E-07
  1 2.73972603E-07
  1 2.73972603E-07
  1 2.73972603E-07
  1 2.73972603E-07
  1 2.73972603E-07
  1 2.73972603E-07
  1 2.73972603E-07
  1 2.73972603E-07
  1 2.73972603E-07
  1 2.73972603E-07
  1 2.73972603E-07
  1 2.73972603E-07
  1 2.73972603E-07
  1 2.73972603E-07
  1 2.73972603E-07
  1 2.73972603E-07
  1 2.73972603E-07
  1 2.73972603E-07
  1 2.73972603E-07
  1 2.73972603E-07
  1 2.73972603E-07
  1 2.73972603E-07
  1 2.73972603E-07
  1 2.73972603E-07
  1 2.73972603E-07
  1 2.73972603E-07
  1 2.73972603E-07
  1 2.73972603E-07
  1 2.73972603E-07
  1 2.73972603E-07
  1 2.73972603E-07
  1 2.73972603E-07
  1 2.73972603E-07
  1 2.73972603E-07
  1 2.73972603E-07
  1 2.73972603E-07
  1 2.73972603E-07
  1 2.73972603E-07
  1 2.73972603E-07
  1 2.73972603E-07
  1 2.73972603E-07
  1 2.73972603E-07
  1 2.73972603E-07
  1 2.73972603E-07
  1 2.73972603E-07
  1 2.73972603E-07
  1 2.73972603E-07
  1 2.73972603E-07
  1 2.73972603E-07
  1 2.73972603E-07
  1 2.73972603E-07
  1 2.73972603E-07
  1 2.73972603E-07
  1 2.73972603E-07
  1 2.73972603E-07
  1 2.73972603E-07
  1 2.73972603E-07
  1 2.73972603E-07
  1 2.73972603E-07
  1 2.73972603E-07
  1 2.73972603E-07
  1 2.73972603E-07
  1 2.73972603E-07
  1 2.73972603E-07
  1 2.73972603E-07
  1 2.73972603E-07
  1 2.73972603E-07
  1 2.73972603E-07
  1 2.73972603E-07
  1 2.73972603E-07
  1 2.73972603E-07
  1 2.73972603E-07
  1 2.73972603E-07
  1 2.73972603E-07
  1 2.73972603E-07
  1 2.73972603E-07
  1 2.73972603E-07
  1 2.73972603E-07
  1 2.73972603E-07
  1 2.73972603E-07
  1 2.73972603E-07
  1 2.73972603E-07
  1 2.73972603E-07
  1 2.73972603E-07
  1 2.73972603E-07
  1 2.73972603E-07
  1 2.73972603E-07
  1 2.73972603E-07
  1 2.73972603E-07
  1 2.73972603E-07
  1 2.73972603E-07
  1 2.73972603E-07
  1 2.73972603E-07
  1 2.73972603E-07
  1 2.73972603E-07
  1 2.73972603E-07
  1 2.73972603E-07
  1 2.73972603E-07
  1 2.73972603E-07
  1 2.73972603E-07
  1 2.73972603E-07
  1 2.73972603E-07
  1 2.73972603E-07
  1 2.73972603E-07
  1 2.73972603E-07
  1 2.73972603E-07
  1 2.73972603E-07
  1 2.73972603E-07
  1 2.73972603E-07
  1 2.73972603E-07
  1 2.73972603E-07
  1 2.73972603E-07
  1 2.73972603E-07
  1 2.73972603E-07
  1 2.73972603E-07
  1 2.73972603E-07
  1 2.73972603E-07
  1 2.73972603E-07
  1 2.73972603E-07
  1 2.73972603E-07
  1 2.73972603E-07
  1 2.73972603E-07
  1 2.73972603E-07
  1 2.73972603E-07
  1 2.73972603E-07
  1 2.73972603E-07
  1 2.73972603E-07
  1 2.73972603E-07
  1 2.73972603E-07
  1 2.73972603E-07
  1 2.73972603E-07
  1 2.73972603E-07
  1 2.73972603E-07
  1 2.73972603E-07
  1 2.73972603E-07
  1 2.73972603E-07
  1 2.73972603E-07
  1 2.73972603E-07
  1 2.73972603E-07
  1 2.73972603E-07
  1 2.73972603E-07
  1 2.73972603E-07
  1 2.73972603E-07
  1 2.73972603E-07
  1 2.73972603E-07
  1 2.73972603E-07
  1 2.73972603E-07
  1 2.73972603E-07
  1 2.73972603E-07
  1 2.73972603E-07
  1 2.73972603E-07
  1 2.73972603E-07
  1 2.73972603E-07
  1 2.73972603E-07
  1 2.73972603E-07
  1 2.73972603E-07
  1 2.73972603E-07
  1 2.73972603E-07
  1 2.73972603E-07
  1 2.73972603E-07
  1 2.73972603E-07
  1 2.73972603E-07
  1 2.73972603E-07
  1 2.73972603E-07
  1 2.73972603E-07
  1 2.73972603E-07
  1 2.73972603E-07
  1 2.73972603E-07
  1 2.73972603E-07
  1 2.73972603E-07
  1 2.73972603E-07
  1 2.73972603E-07
  1 2.73972603E-07
  1 2.73972603E-07
  1 2.73972603E-07
  1 2.73972603E-07
  1 2.73972603E-07
  1 2.73972603E-07
  1 2.73972603E-07
  1 2.73972603E-07
  1 2.73972603E-07
  1 2.73972603E-07
  1 2.73972603E-07
  1 2.73972603E-07
  1 2.73972603E-07
  1 2.73972603E-07
  1 2.73972603E-07
  1 2.73972603E-07
  1 2.73972603E-07
  1 2.73972603E-07
  1 2.73972603E-07
  1 2.73972603E-07
  1 2.73972603E-07
  1 2.73972603E-07
  1 2.73972603E-07
  1 2.73972603E-07
  1 2.73972603E-07
  1 2.73972603E-07
  1 2.73972603E-07
  1 2.73972603E-07
  1 2.73972603E-07
  1 2.73972603E-07
  1 2.73972603E-07
  1 2.73972603E-07
  1 2.73972603E-07
  1 2.73972603E-07
  1 2.73972603E-07
  1 2.73972603E-07
  1 2.73972603E-07
  1 2.73972603E-07
  1 2.73972603E-07
  1 2.73972603E-07
  1 2.73972603E-07
  1 2.73972603E-07
  1 2.73972603E-07
  1 2.73972603E-07
  1 2.73972603E-07
  1 2.73972603E-07
  1 2.73972603E-07
  1 2.73972603E-07
  1 2.73972603E-07
  1 2.73972603E-07
  1 2.73972603E-07
  1 2.73972603E-07
  1 2.73972603E-07
  1 2.73972603E-07
  1 2.73972603E-07
  1 2.73972603E-07
  1 2.73972603E-07
  1 2.73972603E-07
  1 2.73972603E-07
  1 2.73972603E-07
  1 2.73972603E-07
  1 2.73972603E-07
  1 2.73972603E-07
  1 2.73972603E-07
  1 2.73972603E-07
  1 2.73972603E-07
  1 2.73972603E-07
  1 2.73972603E-07
  1 2.73972603E-07
  1 2.73972603E-07
  1 2.73972603E-07
  1 2.73972603E-07
  1 2.73972603E-07
  1 2.73972603E-07
  1 2.73972603E-07
  1 2.73972603E-07
  1 2.73972603E-07
  1 2.73972603E-07
  1 2.73972603E-07
  1 2.73972603E-07
  1 2.73972603E-07
  1 2.73972603E-07
  1 2.73972603E-07
  1 2.73972603E-07
  1 2.73972603E-07
  1 2.73972603E-07
  1 2.73972603E-07
  1 2.73972603E-07
  1 2.73972603E-07
  1 2.73972603E-07
  1 2.73972603E-07
  1 2.73972603E-07
  1 2.73972603E-07
  1 2.73972603E-07
  1 2.73972603E-07
  1 2.73972603E-07
  1 2.73972603E-07
  1 2.73972603E-07
  1 2.73972603E-07
  1 2.73972603E-07
  1 2.73972603E-07
  1 2.73972603E-07
  1 2.73972603E-07
  1 2.73972603E-07
  1 2.73972603E-07
  1 2.73972603E-07
  1 2.73972603E-07
  1 2.73972603E-07
  1 2.73972603E-07
  1 2.73972603E-07
  1 2.73972603E-07
  1 2.73972603E-07
  1 2.73972603E-07
  1 2.73972603E-07
  1 2.73972603E-07
  1 2.73972603E-07
  1 2.73972603E-07
  1 2.73972603E-07
  1 2.73972603E-07
  1 2.73972603E-07
  1 2.73972603E-07
  1 2.73972603E-07
  1 2.73972603E-07
  1 2.73972603E-07
  1 2.73972603E-07
  1 2.73972603E-07
  1 2.73972603E-07
  1 2.73972603E-07
  1 2.73972603E-07
  1 2.73972603E-07
  1 2.73972603E-07
  1 2.73972603E-07
  1 2.73972603E-07
  1 2.73972603E-07
  1 2.73972603E-07
  1 2.73972603E-07
  1 2.73972603E-07
  1 2.73972603E-07
  1 2.73972603E-07
  1 2.73972603E-07
  1 2.73972603E-07
  1 2.73972603E-07
  1 2.73972603E-07
  1 2.73972603E-07
  1 2.73972603E-07
  1 2.73972603E-07
  1 2.73972603E-07
  1 2.73972603E-07
  1 2.73972603E-07
  1 2.73972603E-07
  1 2.73972603E-07
  1 2.73972603E-07
  1 2.73972603E-07
  1 2.73972603E-07
  1 2.73972603E-07
  1 2.73972603E-07
  1 2.73972603E-07
  1 2.73972603E-07
  1 2.73972603E-07
  1 2.73972603E-07
  1 2.73972603E-07
  1 2.73972603E-07
  1 2.73972603E-07
  1 2.73972603E-07
  1 2.73972603E-07
  1 2.73972603E-07
  1 2.73972603E-07
  1 2.73972603E-07
  1 2.73972603E-07
  1 2.73972603E-07
  1 2.73972603E-07
  1 2.73972603E-07
  1 2.73972603E-07
  1 2.73972603E-07
  1 2.73972603E-07
  1 2.73972603E-07
  1 2.73972603E-07
  1 2.73972603E-07
  1 2.73972603E-07
  1 2.73972603E-07
  1 2.73972603E-07
  1 2.73972603E-07
  1 2.73972603E-07
  1 2.73972603E-07
  1 2.73972603E-07
  1 2.73972603E-07
  1 2.73972603E-07
  1 2.73972603E-07
  1 2.73972603E-07
  1 2.73972603E-07
  1 2.73972603E-07
  1 2.73972603E-07
  1 2.73972603E-07
  1 2.73972603E-07
  1 2.73972603E-07
  1 2.73972603E-07
  1 2.73972603E-07
  1 2.73972603E-07
  1 2.73972603E-07
  1 2.73972603E-07
  1 2.73972603E-07
  1 2.73972603E-07
  1 2.73972603E-07
  1 2.73972603E-07
  1 2.73972603E-07
  1 2.73972603E-07
  1 2.73972603E-07
  1 2.73972603E-07
  1 2.73972603E-07
  1 2.73972603E-07
  1 2.73972603E-07
  1 2.73972603E-07
  1 2.73972603E-07
  1 2.73972603E-07
  1 2.73972603E-07
  1 2.73972603E-07
  1 2.73972603E-07
  1 2.73972603E-07
  1 2.73972603E-07
  1 2.73972603E-07
  1 2.73972603E-07
  1 2.73972603E-07
  1 2.73972603E-07
  1 2.73972603E-07
  1 2.73972603E-07
  1 2.73972603E-07
  1 2.73972603E-07
  1 2.73972603E-07
  1 2.73972603E-07
  1 2.73972603E-07
  1 2.73972603E-07
  1 2.73972603E-07
  1 2.73972603E-07
  1 2.73972603E-07
  1 2.73972603E-07
  1 2.73972603E-07
  1 2.73972603E-07
  1 2.73972603E-07
  1 2.73972603E-07
  1 2.73972603E-07
  1 2.73972603E-07
  1 2.73972603E-07
  1 2.73972603E-07
  1 2.73972603E-07
  1 2.73972603E-07
  1 2.73972603E-07
  1 2.73972603E-07
  1 2.73972603E-07
  1 2.73972603E-07
  1 2.73972603E-07
  1 2.73972603E-07
  1 2.73972603E-07
  1 2.73972603E-07
  1 2.73972603E-07
  1 2.73972603E-07
  1 2.73972603E-07
  1 2.73972603E-07
  1 2.73972603E-07
  1 2.73972603E-07
  1 2.73972603E-07
  1 2.73972603E-07
  1 2.73972603E-07
  1 2.73972603E-07
  1 2.73972603E-07
  1 2.73972603E-07
  1 2.73972603E-07
  1 2.73972603E-07
  1 2.73972603E-07
  1 2.73972603E-07
  1 2.73972603E-07
  1 2.73972603E-07
  1 2.73972603E-07
  1 2.73972603E-07
  1 2.73972603E-07
  1 2.73972603E-07
  1 2.73972603E-07
  1 2.73972603E-07
  1 2.73972603E-07
  1 2.73972603E-07
  1 2.73972603E-07
  1 2.73972603E-07
  1 2.73972603E-07
  1 2.73972603E-07
  1 2.73972603E-07
  1 2.73972603E-07
  1 2.73972603E-07
  1 2.73972603E-07
  1 2.73972603E-07
  1 2.73972603E-07
  1 2.73972603E-07
  1 2.73972603E-07
  1 2.73972603E-07
  1 2.73972603E-07
  1 2.73972603E-07
  1 2.73972603E-07
  1 2.73972603E-07
  1 2.73972603E-07
  1 2.73972603E-07
  1 2.73972603E-07
  1 2.73972603E-07
  1 2.73972603E-07
  1 2.73972603E-07
  1 2.73972603E-07
  1 2.73972603E-07
  1 2.73972603E-07
  1 2.73972603E-07
  1 2.73972603E-07
  1 2.73972603E-07
  1 2.73972603E-07
  1 2.73972603E-07
  1 2.73972603E-07
  1 2.73972603E-07
  1 2.73972603E-07
  1 2.73972603E-07
  1 2.73972603E-07
  1 2.73972603E-07
  1 2.73972603E-07
  1 2.73972603E-07
  1 2.73972603E-07
  1 2.73972603E-07
  1 2.73972603E-07
  1 2.73972603E-07
  1 2.73972603E-07
  1 2.73972603E-07
  1 2.73972603E-07
  1 2.73972603E-07
  1 2.73972603E-07
  1 2.73972603E-07
  1 2.73972603E-07
  1 2.73972603E-07
  1 2.73972603E-07
  1 2.73972603E-07
  1 2.73972603E-07
  1 2.73972603E-07
  1 2.73972603E-07
  1 2.73972603E-07
  1 2.73972603E-07
  1 2.73972603E-07
  1 2.73972603E-07
  1 2.73972603E-07
  1 2.73972603E-07
  1 2.73972603E-07
  1 2.73972603E-07
  1 2.73972603E-07
  1 2.73972603E-07
  1 2.73972603E-07
  1 2.73972603E-07
  1 2.73972603E-07
  1 2.73972603E-07
  1 2.73972603E-07
  1 2.73972603E-07
  1 2.73972603E-07
  1 2.73972603E-07
  1 2.73972603E-07
  1 2.73972603E-07
  1 2.73972603E-07
  1 2.73972603E-07
  1 2.73972603E-07
  1 2.73972603E-07
  1 2.73972603E-07
  1 2.73972603E-07
  1 2.73972603E-07
  1 2.73972603E-07
  1 2.73972603E-07
  1 2.73972603E-07
  1 2.73972603E-07
  1 2.73972603E-07
  1 2.73972603E-07
  1 2.73972603E-07
  1 2.73972603E-07
  1 2.73972603E-07
  1 2.73972603E-07
  1 2.73972603E-07
  1 2.73972603E-07
  1 2.73972603E-07
  1 2.73972603E-07
  1 2.73972603E-07
  1 2.73972603E-07
  1 2.73972603E-07
  1 2.73972603E-07
  1 2.73972603E-07
  1 2.73972603E-07
  1 2.73972603E-07
  1 2.73972603E-07
  1 2.73972603E-07
  1 2.73972603E-07
  1 2.73972603E-07
  1 2.73972603E-07
  1 2.73972603E-07
  1 2.73972603E-07
  1 2.73972603E-07
  1 2.73972603E-07
  1 2.73972603E-07
  1 2.73972603E-07
  1 2.73972603E-07
  1 2.73972603E-07
  1 2.73972603E-07
  1 2.73972603E-07
  1 2.73972603E-07
END period  1

