# File generated by Flopy version 3.8.2 on 02/18/2025 at 17:59:31.
BEGIN options
  SAVE_FLOWS
  NEWTON  UNDER_RELAXATION
END options

BEGIN packages
  DISU6  transientmodel.disu  disu
  NPF6  transientmodel.npf  npf
  IC6  transientmodel.ic  ic
  STO6  transientmodel.sto  sto
  WEL6  transientmodel.wel  wel_0
  CHD6  transientmodel.chd  chd_0
  RCH6  transientmodel.rch  rch_0
  OBS6  transientmodel  obs_0
  OC6  transientmodel.oc  oc
END packages

