# File generated by Flopy version 3.9.3 on 07/21/2025 at 23:04:17.
BEGIN options
END options

BEGIN dimensions
  MAXBOUND  848
END dimensions

BEGIN period  1
  4293 2.36628876E+01
  5630 2.60028876E+01
  6967 2.89278876E+01
  8304 3.24378876E+01
  9641 3.64578876E+01
  10978 4.32528876E+01
  4458 2.33472388E+01
  5795 2.56872388E+01
  7132 2.86272388E+01
  8469 3.21672388E+01
  9806 3.61872388E+01
  11143 4.29372388E+01
  4302 2.37432564E+01
  5639 2.60532564E+01
  6976 2.89782564E+01
  8313 3.25182564E+01
  9650 3.65382564E+01
  10987 4.32882564E+01
  4459 2.37670987E+01
  5796 2.61070987E+01
  7133 2.90320987E+01
  8470 3.25420987E+01
  9807 3.65470987E+01
  11144 4.32970987E+01
  4304 2.34337653E+01
  5641 2.57737653E+01
  6978 2.87137653E+01
  8315 3.22537653E+01
  9652 3.62587653E+01
  10989 4.29637653E+01
  4460 2.37670987E+01
  5797 2.61070987E+01
  7134 2.90470987E+01
  8471 3.25870987E+01
  9808 3.65920987E+01
  11145 4.32970987E+01
  4323 2.34487653E+01
  5660 2.58187653E+01
  6997 2.87587653E+01
  8334 3.22687653E+01
  9671 3.62587653E+01
  11008 4.29637653E+01
  4462 2.38270987E+01
  5799 2.61670987E+01
  7136 2.90920987E+01
  8473 3.26020987E+01
  9810 3.65920987E+01
  11147 4.32970987E+01
  4305 2.35087653E+01
  5642 2.58787653E+01
  6979 2.88187653E+01
  8316 3.23287653E+01
  9653 3.63037653E+01
  10990 4.29637653E+01
  4463 2.38420987E+01
  5800 2.62120987E+01
  7137 2.91520987E+01
  8474 3.26620987E+01
  9811 3.66370987E+01
  11148 4.32970987E+01
  4313 2.35087653E+01
  5650 2.58787653E+01
  6987 2.88337653E+01
  8324 3.23737653E+01
  9661 3.63487653E+01
  10998 4.29637653E+01
  4471 2.38420987E+01
  5808 2.62120987E+01
  7145 2.91670987E+01
  8482 3.27070987E+01
  9819 3.66820987E+01
  11156 4.32970987E+01
  4311 2.35687653E+01
  5648 2.59387653E+01
  6985 2.88787653E+01
  8322 3.23887653E+01
  9659 3.63487653E+01
  10996 4.29637653E+01
  4472 2.39020987E+01
  5809 2.62720987E+01
  7146 2.92120987E+01
  8483 3.27220987E+01
  9820 3.66820987E+01
  11157 4.32970987E+01
  4316 2.35687653E+01
  5653 2.59387653E+01
  6990 2.88937653E+01
  8327 3.24337653E+01
  9664 3.63937653E+01
  11001 4.29637653E+01
  4465 2.39170987E+01
  5802 2.63170987E+01
  7139 2.92720987E+01
  8476 3.27820987E+01
  9813 3.67270987E+01
  11150 4.32970987E+01
  4308 2.35837653E+01
  5645 2.59837653E+01
  6982 2.89387653E+01
  8319 3.24487653E+01
  9656 3.63937653E+01
  10993 4.29637653E+01
  4466 2.39620987E+01
  5803 2.63320987E+01
  7140 2.92870987E+01
  8477 3.28270987E+01
  9814 3.67720987E+01
  11151 4.32970987E+01
  4322 2.36437653E+01
  5659 2.60437653E+01
  6996 2.89987653E+01
  8333 3.25087653E+01
  9670 3.64387653E+01
  11007 4.29637653E+01
  4468 2.39770987E+01
  5805 2.63770987E+01
  7142 2.93320987E+01
  8479 3.28420987E+01
  9816 3.67720987E+01
  11153 4.32970987E+01
  4309 2.36437653E+01
  5646 2.60437653E+01
  6983 2.90137653E+01
  8320 3.25537653E+01
  9657 3.64837653E+01
  10994 4.29637653E+01
  4469 2.39920987E+01
  5806 2.64220987E+01
  7143 2.93920987E+01
  8480 3.29020987E+01
  9817 3.68170987E+01
  11154 4.32970987E+01
  4317 2.36587653E+01
  5654 2.60887653E+01
  6991 2.90587653E+01
  8328 3.25687653E+01
  9665 3.64837653E+01
  11002 4.29637653E+01
  4328 2.40370987E+01
  5665 2.64370987E+01
  7002 2.94070987E+01
  8339 3.29470987E+01
  9676 3.68620987E+01
  11013 4.32970987E+01
  4475 2.37187653E+01
  5812 2.61487653E+01
  7149 2.91187653E+01
  8486 3.26287653E+01
  9823 3.65287653E+01
  11160 4.29637653E+01
  4320 2.40520987E+01
  5657 2.64820987E+01
  6994 2.94520987E+01
  8331 3.29620987E+01
  9668 3.68620987E+01
  11005 4.32970987E+01
  4473 2.37187653E+01
  5810 2.61487653E+01
  7147 2.91337653E+01
  8484 3.26737653E+01
  9821 3.65737653E+01
  11158 4.29637653E+01
  1770 2.19970987E+01
  4477 2.41120987E+01
  5814 2.65420987E+01
  7151 2.95120987E+01
  8488 3.30220987E+01
  9825 3.69070987E+01
  11162 4.32970987E+01
  1669 2.16637653E+01
  4376 2.37787653E+01
  5713 2.62087653E+01
  7050 2.91787653E+01
  8387 3.26887653E+01
  9724 3.65737653E+01
  11061 4.29637653E+01
  1771 2.19970987E+01
  4478 2.41120987E+01
  5815 2.65420987E+01
  7152 2.95270987E+01
  8489 3.30670987E+01
  9826 3.69520987E+01
  11163 4.32970987E+01
  1688 2.16637653E+01
  4395 2.37937653E+01
  5732 2.62537653E+01
  7069 2.92387653E+01
  8406 3.27487653E+01
  9743 3.66187653E+01
  11080 4.29637653E+01
  1773 2.19970987E+01
  4480 2.41270987E+01
  5817 2.65870987E+01
  7154 2.95720987E+01
  8491 3.30820987E+01
  9828 3.69520987E+01
  11165 4.32970987E+01
  1670 2.17087653E+01
  4377 2.38387653E+01
  5714 2.62687653E+01
  7051 2.92537653E+01
  8388 3.27937653E+01
  9725 3.66637653E+01
  11062 4.29637653E+01
  1774 2.20420987E+01
  4481 2.41870987E+01
  5818 2.66470987E+01
  7155 2.96320987E+01
  8492 3.31420987E+01
  9829 3.69970987E+01
  11166 4.32970987E+01
  1678 2.17087653E+01
  4385 2.38537653E+01
  5722 2.63137653E+01
  7059 2.92987653E+01
  8396 3.28087653E+01
  9733 3.66637653E+01
  11070 4.29637653E+01
  1782 2.20420987E+01
  4489 2.41870987E+01
  5826 2.66470987E+01
  7163 2.96470987E+01
  8500 3.31870987E+01
  9837 3.70420987E+01
  11174 4.32970987E+01
  1676 2.17087653E+01
  4383 2.38687653E+01
  5720 2.63587653E+01
  7057 2.93587653E+01
  8394 3.28687653E+01
  9731 3.67087653E+01
  11068 4.29637653E+01
  1783 2.20870987E+01
  4490 2.42470987E+01
  5827 2.67070987E+01
  7164 2.96920987E+01
  8501 3.32020987E+01
  9838 3.70420987E+01
  11175 4.32970987E+01
  1681 2.17537653E+01
  4388 2.39287653E+01
  5725 2.64187653E+01
  7062 2.94187653E+01
  8399 3.29287653E+01
  9736 3.67537653E+01
  11073 4.29637653E+01
  1776 2.20870987E+01
  4483 2.42620987E+01
  5820 2.67520987E+01
  7157 2.97520987E+01
  8494 3.32620987E+01
  9831 3.70870987E+01
  11168 4.32970987E+01
  1673 2.17537653E+01
  4380 2.39287653E+01
  5717 2.64187653E+01
  7054 2.94337653E+01
  8391 3.29737653E+01
  9728 3.67987653E+01
  11065 4.29637653E+01
  1777 2.21320987E+01
  4484 2.43220987E+01
  5821 2.68120987E+01
  7158 2.98120987E+01
  8495 3.33220987E+01
  9832 3.71320987E+01
  11169 4.32970987E+01
  1687 2.17987653E+01
  4394 2.39887653E+01
  5731 2.64787653E+01
  7068 2.94787653E+01
  8405 3.29887653E+01
  9742 3.67987653E+01
  11079 4.29637653E+01
  1779 2.21320987E+01
  4486 2.43220987E+01
  5823 2.68120987E+01
  7160 2.98270987E+01
  8497 3.33670987E+01
  9834 3.71770987E+01
  11171 4.32970987E+01
  1674 2.17987653E+01
  4381 2.40037653E+01
  5718 2.65237653E+01
  7055 2.95387653E+01
  8392 3.30487653E+01
  9729 3.68437653E+01
  11066 4.29637653E+01
  1780 2.21770987E+01
  4487 2.43820987E+01
  5824 2.68720987E+01
  7161 2.98870987E+01
  8498 3.34270987E+01
  9835 3.72220987E+01
  11172 4.32970987E+01
  1682 2.18437653E+01
  4389 2.40637653E+01
  5726 2.65837653E+01
  7063 2.95987653E+01
  8400 3.31087653E+01
  9737 3.68887653E+01
  11074 4.29637653E+01
  1689 2.21770987E+01
  4396 2.43970987E+01
  5733 2.69170987E+01
  7070 2.99320987E+01
  8407 3.34420987E+01
  9744 3.72220987E+01
  11081 4.32970987E+01
  1786 2.18437653E+01
  4493 2.40637653E+01
  5830 2.65837653E+01
  7167 2.96137653E+01
  8504 3.31537653E+01
  9841 3.69337653E+01
  11178 4.29637653E+01
  1685 2.22220987E+01
  4392 2.44570987E+01
  5729 2.69770987E+01
  7066 2.99920987E+01
  8403 3.35020987E+01
  9740 3.72670987E+01
  11077 4.32970987E+01
  1784 2.18887653E+01
  4491 2.41237653E+01
  5828 2.66437653E+01
  7165 2.96737653E+01
  8502 3.32137653E+01
  9839 3.69787653E+01
  11176 4.29637653E+01
  1788 2.22220987E+01
  4495 2.44720987E+01
  5832 2.70220987E+01
  7169 3.00520987E+01
  8506 3.35620987E+01
  9843 3.73120987E+01
  11180 4.32970987E+01
  1691 2.18887653E+01
  4398 2.41387653E+01
  5735 2.66887653E+01
  7072 2.97187653E+01
  8409 3.32287653E+01
  9746 3.69787653E+01
  11083 4.29637653E+01
  1789 2.22670987E+01
  4496 2.45170987E+01
  5833 2.70370987E+01
  7170 3.00670987E+01
  8507 3.36070987E+01
  9844 3.73570987E+01
  11181 4.32970987E+01
  1712 2.19337653E+01
  4419 2.41987653E+01
  5756 2.67487653E+01
  7093 2.97787653E+01
  8430 3.32887653E+01
  9767 3.70237653E+01
  11104 4.29637653E+01
  1791 2.22670987E+01
  4498 2.45320987E+01
  5835 2.70820987E+01
  7172 3.01270987E+01
  8509 3.36670987E+01
  9846 3.74020987E+01
  11183 4.32970987E+01
  1692 2.19337653E+01
  4399 2.42137653E+01
  5736 2.67937653E+01
  7073 2.98387653E+01
  8410 3.33487653E+01
  9747 3.70687653E+01
  11084 4.29637653E+01
  1792 2.23120987E+01
  4499 2.45920987E+01
  5836 2.71420987E+01
  7173 3.01720987E+01
  8510 3.36820987E+01
  9847 3.74020987E+01
  11184 4.32970987E+01
  1711 2.19787653E+01
  4418 2.42587653E+01
  5755 2.68087653E+01
  7092 2.98537653E+01
  8429 3.33937653E+01
  9766 3.71137653E+01
  11103 4.29637653E+01
  1800 2.23120987E+01
  4507 2.46070987E+01
  5844 2.71870987E+01
  7181 3.02320987E+01
  8518 3.37420987E+01
  9855 3.74470987E+01
  11192 4.32970987E+01
  1698 2.19787653E+01
  4405 2.42737653E+01
  5742 2.68537653E+01
  7079 2.99137653E+01
  8416 3.34537653E+01
  9753 3.71587653E+01
  11090 4.29637653E+01
  1801 2.23570987E+01
  4508 2.46670987E+01
  5845 2.72470987E+01
  7182 3.02920987E+01
  8519 3.38020987E+01
  9856 3.74920987E+01
  11193 4.32970987E+01
  1700 2.20237653E+01
  4407 2.43337653E+01
  5744 2.69137653E+01
  7081 2.99587653E+01
  8418 3.34687653E+01
  9755 3.71587653E+01
  11092 4.29637653E+01
  1794 2.23570987E+01
  4501 2.46670987E+01
  5838 2.72470987E+01
  7175 3.03070987E+01
  8512 3.38470987E+01
  9849 3.75370987E+01
  11186 4.32970987E+01
  1695 2.20237653E+01
  4402 2.43487653E+01
  5739 2.69587653E+01
  7076 3.00187653E+01
  8413 3.35287653E+01
  9750 3.72037653E+01
  11087 4.29637653E+01
  1795 2.24020987E+01
  4502 2.47270987E+01
  5839 2.73070987E+01
  7176 3.03520987E+01
  8513 3.38620987E+01
  9850 3.75370987E+01
  11187 4.32970987E+01
  1703 2.20687653E+01
  4410 2.44087653E+01
  5747 2.70187653E+01
  7084 3.00787653E+01
  8421 3.35887653E+01
  9758 3.72487653E+01
  11095 4.29637653E+01
  1797 2.24020987E+01
  4504 2.47420987E+01
  5841 2.73520987E+01
  7178 3.04120987E+01
  8515 3.39220987E+01
  9852 3.75820987E+01
  11189 4.32970987E+01
  1696 2.20687653E+01
  4403 2.44087653E+01
  5740 2.70187653E+01
  7077 3.00937653E+01
  8414 3.36337653E+01
  9751 3.72937653E+01
  11088 4.29637653E+01
  1798 2.24470987E+01
  4505 2.48020987E+01
  5842 2.74120987E+01
  7179 3.04720987E+01
  8516 3.39820987E+01
  9853 3.76270987E+01
  11190 4.32970987E+01
  1705 2.21137653E+01
  4412 2.44687653E+01
  5749 2.70787653E+01
  7086 3.01387653E+01
  8423 3.36487653E+01
  9760 3.72937653E+01
  11097 4.29637653E+01
  1713 2.24470987E+01
  4420 2.48020987E+01
  5757 2.74120987E+01
  7094 3.04870987E+01
  8431 3.40270987E+01
  9768 3.76720987E+01
  11105 4.32970987E+01
  1804 2.20850426E+01
  4511 2.44550426E+01
  5848 2.70950426E+01
  7185 3.01700426E+01
  8522 3.36800426E+01
  9859 3.73100426E+01
  11196 4.29350426E+01
  1802 2.20696814E+01
  4509 2.44396814E+01
  5846 2.70496814E+01
  7183 3.01246814E+01
  8520 3.36646814E+01
  9857 3.72946814E+01
  11194 4.28746814E+01
  1704 2.24183759E+01
  4411 2.47883759E+01
  5748 2.74283759E+01
  7085 3.05033759E+01
  8422 3.40133759E+01
  9759 3.76433759E+01
  11096 4.32683759E+01
  4104 1.69986210E+00
  5441 4.27986210E+00
  6778 7.33986210E+00
  8115 1.08798621E+01
  9452 1.47048621E+01
  10789 2.08698621E+01
  4105 1.59259663E+00
  5442 4.14259663E+00
  6779 7.18759663E+00
  8116 1.07275966E+01
  9453 1.45375966E+01
  10790 2.06575966E+01
  4108 8.45080177E-01
  5445 3.30508018E+00
  6782 6.30508018E+00
  8119 9.84508018E+00
  9456 1.36400802E+01
  10793 1.97150802E+01
  3402 -6.12185294E-01
  4093 7.37814706E-01
  5430 3.16781471E+00
  6767 6.13781471E+00
  8104 9.64781471E+00
  9441 1.34278147E+01
  10778 1.95028147E+01
  3400 -1.37470174E+00
  4091 -9.70174428E-03
  5428 2.33029826E+00
  6765 5.25529826E+00
  8102 8.76529826E+00
  9439 1.25302983E+01
  10776 1.85602983E+01
  3403 -1.49696722E+00
  4094 -1.16967215E-01
  5431 2.19303278E+00
  6768 5.10303278E+00
  8105 8.61303278E+00
  9442 1.23630328E+01
  10779 1.83480328E+01
  3405 -2.28948367E+00
  4096 -9.09483665E-01
  5433 1.34051633E+00
  6770 4.22051633E+00
  8107 7.73051633E+00
  9444 1.14655163E+01
  10781 1.74055163E+01
  2719 -2.95821615E+00
  3404 -2.38821615E+00
  4095 -1.00821615E+00
  5432 1.18178385E+00
  6769 4.04678385E+00
  8106 7.58678385E+00
  9443 1.13217839E+01
  10780 1.72167839E+01
  2753 -3.71380640E+00
  3438 -3.05380640E+00
  4136 -1.65880640E+00
  5473 4.71193603E-01
  6810 3.29119360E+00
  8147 6.80119360E+00
  9484 1.05061936E+01
  10821 1.63561936E+01
  2684 -3.77431257E+00
  3369 -3.05431257E+00
  4057 -1.65931257E+00
  5394 4.10687432E-01
  6731 3.21568743E+00
  8068 6.75568743E+00
  9405 1.04606874E+01
  10742 1.62656874E+01
  2683 -4.48244609E+00
  3368 -3.67244609E+00
  4055 -2.26244609E+00
  5392 -2.52446093E-01
  6729 2.52255391E+00
  8066 6.06255391E+00
  9403 9.75255391E+00
  10740 1.55125539E+01
  2685 -4.44888875E+00
  3370 -3.60888875E+00
  4058 -2.19888875E+00
  5395 -2.18888747E-01
  6732 2.52611125E+00
  8069 6.03611125E+00
  9406 9.71111125E+00
  10743 1.54711113E+01
  2691 -5.12425887E+00
  3376 -4.19425887E+00
  4064 -2.76925887E+00
  5401 -8.49258866E-01
  6738 1.86574113E+00
  8075 5.37574113E+00
  9412 9.03574113E+00
  10749 1.47507411E+01
  2687 -5.09070152E+00
  3372 -4.13070152E+00
  4060 -2.70570152E+00
  5397 -8.15701521E-01
  6734 1.88429848E+00
  8071 5.39429848E+00
  9408 9.03929848E+00
  10745 1.47092985E+01
  2676 -5.76607164E+00
  3361 -4.71607164E+00
  4047 -3.27607164E+00
  5384 -1.44607164E+00
  6721 1.22392836E+00
  8058 4.73392836E+00
  9395 8.36392836E+00
  10732 1.39889284E+01
  2675 -5.73251429E+00
  3360 -4.65251429E+00
  4045 -3.22751429E+00
  5382 -1.45751429E+00
  6719 1.19748571E+00
  8056 4.73748571E+00
  9393 8.36748571E+00
  10730 1.39474857E+01
  2677 -6.40788441E+00
  3362 -5.23788441E+00
  4048 -3.78288441E+00
  5385 -2.04288441E+00
  6722 5.82115587E-01
  8059 4.09211559E+00
  9396 7.69211559E+00
  10733 1.32271156E+01
  2679 -6.43574318E+00
  3364 -5.20574318E+00
  4051 -3.75074318E+00
  5388 -2.07074318E+00
  6725 5.39256822E-01
  8062 4.07925682E+00
  9399 7.67925682E+00
  10736 1.31692568E+01
  2678 -7.11058033E+00
  3363 -5.82058033E+00
  4049 -4.36558033E+00
  5386 -2.74558033E+00
  6723 -1.65580328E-01
  8060 3.37441967E+00
  9397 6.95941967E+00
  10734 1.24044197E+01
  2680 -7.06029897E+00
  3365 -5.74029897E+00
  4052 -4.27029897E+00
  5389 -2.65029897E+00
  6726 -8.52989701E-02
  8063 3.42470103E+00
  9400 6.99470103E+00
  10737 1.24397010E+01
  3196 -7.35189391E+00
  3881 -5.97189391E+00
  5091 -4.50189391E+00
  6428 -2.94189391E+00
  7765 -3.91893907E-01
  9102 3.14810609E+00
  10439 6.71810609E+00
  11776 1.21181061E+01
  2704 -8.02484245E+00
  3389 -6.58484245E+00
  4078 -5.09984245E+00
  5415 -3.56984245E+00
  6752 -1.04984245E+00
  8089 2.46015755E+00
  9426 6.01515755E+00
  10763 1.14151575E+01
  2703 -8.14621650E+00
  3388 -6.67621650E+00
  4077 -5.19121650E+00
  5414 -3.69121650E+00
  6751 -1.18621650E+00
  8088 2.32378350E+00
  9425 5.86378350E+00
  10762 1.12187835E+01
  2708 -9.01263015E+00
  3393 -7.45263015E+00
  4082 -5.96763015E+00
  5419 -4.55763015E+00
  6756 -2.08263015E+00
  8093 1.45736985E+00
  9430 4.99736985E+00
  10767 1.03073699E+01
  2707 -9.17900420E+00
  3392 -7.55900420E+00
  4081 -6.05900420E+00
  5418 -4.67900420E+00
  6755 -2.23400420E+00
  8092 1.27599580E+00
  9429 4.80099580E+00
  10766 1.01109958E+01
  2710 -1.00154178E+01
  3395 -8.36541784E+00
  4084 -6.86541784E+00
  5421 -5.51541784E+00
  6758 -3.08541784E+00
  8095 4.24582161E-01
  9432 3.93458216E+00
  10769 9.19958216E+00
  2696 -1.01967919E+01
  3381 -8.51679189E+00
  4069 -7.01679189E+00
  5406 -5.69679189E+00
  6743 -3.26679189E+00
  8080 2.73208109E-01
  9417 3.78320811E+00
  10754 9.00320811E+00
  2694 -1.10782055E+01
  3379 -9.33820553E+00
  4067 -7.82320553E+00
  5404 -6.53320553E+00
  6741 -4.13320553E+00
  8078 -6.23205532E-01
  9415 2.87179447E+00
  10752 8.09179447E+00
  2697 -1.12595796E+01
  3382 -9.48957958E+00
  4070 -7.97457958E+00
  5407 -6.71457958E+00
  6744 -4.31457958E+00
  8081 -7.74579585E-01
  9418 2.72042042E+00
  10755 7.89542042E+00
  2699 -1.21559932E+01
  3384 -1.03559932E+01
  4072 -8.82599323E+00
  5409 -7.56599323E+00
  6746 -5.18099323E+00
  8083 -1.67099323E+00
  9420 1.80900677E+00
  10757 6.98400677E+00
  2698 -1.23373673E+01
  3383 -1.05073673E+01
  4071 -8.97736728E+00
  5408 -7.74736728E+00
  6745 -5.37736728E+00
  8082 -1.86736728E+00
  9419 1.61263272E+00
  10756 6.78763272E+00
  2701 -1.32337809E+01
  3386 -1.13737809E+01
  4074 -9.84378092E+00
  5411 -8.64378092E+00
  6748 -6.27378092E+00
  8085 -2.73378092E+00
  9422 7.46219080E-01
  10759 5.87621908E+00
  2792 -1.34301550E+01
  3477 -1.15701550E+01
  4183 -1.00251550E+01
  5520 -8.79515497E+00
  6857 -6.42515497E+00
  8194 -2.91515497E+00
  9531 5.49845028E-01
  10868 5.67984503E+00
  2764 -1.43265686E+01
  3449 -1.24365686E+01
  4149 -1.08915686E+01
  5486 -9.69156861E+00
  6823 -7.33656861E+00
  8160 -3.82656861E+00
  9497 -3.61568613E-01
  10834 4.76843139E+00
  2767 -1.45229427E+01
  3452 -1.26329427E+01
  4152 -1.10879427E+01
  5489 -9.88794267E+00
  6826 -7.53294267E+00
  8163 -4.02294267E+00
  9500 -5.57942665E-01
  10837 4.57205733E+00
  2769 -1.54193563E+01
  3454 -1.34993563E+01
  4154 -1.19543563E+01
  5491 -1.07843563E+01
  6828 -8.42935631E+00
  8165 -4.88935631E+00
  9502 -1.42435631E+00
  10839 3.66064369E+00
  2768 -1.55760322E+01
  3453 -1.36560322E+01
  4153 -1.20960322E+01
  5490 -1.08960322E+01
  6827 -8.54103216E+00
  8164 -5.03103216E+00
  9501 -1.58103216E+00
  10838 3.50396784E+00
  2771 -1.63374636E+01
  3456 -1.43574636E+01
  4156 -1.27974636E+01
  5493 -1.16574636E+01
  6830 -9.33246357E+00
  8167 -5.82246357E+00
  9504 -2.37246357E+00
  10841 2.71253643E+00
  2757 -1.63640652E+01
  3442 -1.43840652E+01
  4141 -1.28240652E+01
  5478 -1.16840652E+01
  6815 -9.34406520E+00
  8152 -5.80406520E+00
  9489 -2.35406520E+00
  10826 2.68593480E+00
  2756 -1.70183088E+01
  3441 -1.49783088E+01
  4139 -1.34033088E+01
  5476 -1.22933088E+01
  6813 -9.98330880E+00
  8150 -6.47330880E+00
  9487 -3.03830880E+00
  10824 2.00169120E+00
  2758 -1.70180066E+01
  3443 -1.49780066E+01
  4142 -1.34030066E+01
  5479 -1.22930066E+01
  6816 -9.96800665E+00
  8153 -6.42800665E+00
  9490 -2.99300665E+00
  10827 2.00199335E+00
  2760 -1.76554385E+01
  3445 -1.55554385E+01
  4144 -1.39654385E+01
  5481 -1.28854385E+01
  6818 -1.05904385E+01
  8155 -7.08043848E+00
  9492 -3.66043848E+00
  10829 1.33456152E+00
  2759 -1.75951363E+01
  3444 -1.54951363E+01
  4143 -1.39201363E+01
  5480 -1.28701363E+01
  6817 -1.05751363E+01
  8154 -7.03513633E+00
  9491 -3.61513633E+00
  10828 1.33486367E+00
  2762 -1.82325682E+01
  3447 -1.60725682E+01
  4146 -1.44825682E+01
  5483 -1.34625682E+01
  6820 -1.11975682E+01
  8157 -7.68756817E+00
  9494 -4.28256817E+00
  10831 6.67431835E-01
  2774 -1.81779611E+01
  3459 -1.60179611E+01
  4161 -1.44279611E+01
  5498 -1.34079611E+01
  6835 -1.11279611E+01
  8172 -7.58796106E+00
  9509 -4.18296106E+00
  10846 7.22038938E-01
END period  1

