# File generated by Flopy version 3.8.2 on 02/18/2025 at 17:59:34.
BEGIN options
  PRINT_INPUT
END options

BEGIN continuous  FILEOUT  transientmodel_observations.csv
  OBS5  head  2904
  OBS7  head  3671
  OBS6  head  6338
  OBS2  head  3945
  OBS1  head  3902
  OBS3  head  3845
END continuous  FILEOUT  transientmodel_observations.csv

