# File generated by Flopy version 3.9.3 on 07/21/2025 at 23:04:18.
BEGIN options
  PRINT_INPUT
END options

BEGIN continuous  FILEOUT  transientmodel_observations.csv
  OBS1  head  3307
  OBS2  head  5315
  OBS3  head  5215
  OBS5  head  4274
  OBS6  head  5040
  OBS7  head  3850
END continuous  FILEOUT  transientmodel_observations.csv

