# File generated by Flopy version 3.9.3 on 07/21/2025 at 23:04:18.
BEGIN options
  BUDGET  FILEOUT  transientmodel.bud
  HEAD  FILEOUT  transientmodel.hds
END options

BEGIN period  1
  SAVE  HEAD  LAST
  SAVE  BUDGET  ALL
END period  1

