# File generated by Flopy version 3.9.3 on 07/21/2025 at 23:04:17.
BEGIN options
END options

BEGIN griddata
  strt
    INTERNAL  FACTOR  1.0
        -5.66965461      17.92498362      -5.76616365      -6.40100028      -7.10332256      24.35037681      -6.44661585      -7.05429314       7.46597596      10.91148453      -4.48235752      25.32837287      -3.70484208      -4.37503983       8.59402094      -5.01473875      10.75552727       7.69631037      11.70981297      -5.12417841
        18.45455866       8.94724248     -11.07465850      10.16912635     -10.16007937     -11.24259781     -12.32487425     -12.15264306       5.88476074     -13.23076402      12.49731230      23.74526020      -8.10076086      -8.02427070       4.17914086       6.34805258      -9.12829443      -9.01197666       3.72906565     -10.01037118
         5.05939571       5.25028317      18.81901408       9.58456995       9.53726094      32.51469077      -1.36462896      16.09354118      -0.52947444      -1.49316165      -2.96281893      -2.27902065      15.01665978      15.07446275      15.23040174      17.53398476      15.51516401      19.92726553      15.62388664       1.70436801
         1.65205207      16.78099798      17.02124463       0.85091635      14.60608415      18.09423381      20.98312967      17.59797001       9.87619602      10.73770585      10.23961076       9.85894963      17.38059429      17.11032065      18.70027799       9.93727844      10.74609956      17.38109147      10.86257623      18.16104757
        18.81296915      18.13904119      18.18399610      18.95882102      17.23992439      15.90450619      18.30160315      17.01363368      17.72526400       4.03817002      18.18105006      -3.70627962       8.25417059       6.96151757     -17.01783058      24.79304230     -16.30153151     -17.01060969     -17.53762629     -17.65475482
        -5.44043314     -18.22682432      -1.10129785      25.03828605     -14.32282005      16.90244870       3.87417978     -14.47741161     -15.51959688     -15.41424153      -0.65494368     -16.33174615      -0.65349538      33.57563538      14.73597912       3.37002414     -18.07341246      -4.90037745      -3.25613185      -2.26219481
        11.90018779      -6.67850705      -3.31086829      16.91455295      -0.23117116      19.80425442       1.79363450      -0.14865767       1.69575935       3.79592608      17.67424655       0.77480513       2.79182284       9.32843738       5.81245343      -1.24208816      -2.18592562       9.13302248     -13.41335303      19.72363623
        17.65165663      33.20016798      19.05061318      17.88208544      18.10755109      17.97659788      17.99870996      17.61320687      18.50595991      16.29180022      18.88479145      18.85220903      18.07685966      17.49290121      18.70227079      18.95753095      17.69088467      17.91201212      19.20164432      17.84822966
        18.74292028      19.50487396       7.81266231      14.02108268      15.82068486       9.80508696      10.26601445       6.81036319       8.80782079      10.21979479      11.79266451       4.79895587      13.75531966      16.51625135      16.65835491      15.13574153      23.51399051      12.77689353      16.10004711      19.73331960
        25.39920578      10.80531837       9.88429838      10.23509048      19.34144765       5.37981052      16.06951295       8.58433938      17.16928649      17.24520419      17.11767519      16.29158127      18.36214107      18.05239140      18.38731321      17.21596233      17.00524078      22.12337545      18.53609673      16.65361098
        17.79123226      11.37180115      23.39206862      21.40807775      20.40212654      22.40025525      23.10248631      23.06869561      24.34088622      19.38459414       8.94024163      22.50403436      19.08535950      22.02652484      17.60033839      16.66910530      17.34941164      18.65146844      18.46267258      18.23999464
        18.28745130      11.20354758      23.48232109      18.48946781      23.10270528      23.49120512      23.17148478      23.15830015      23.83290831      18.83693687      23.96835864      22.65881496      22.61146137      23.84146455      24.37819734      16.35928249      27.63469995      17.55827322      19.72238385      29.56869911
        29.25432244      26.66285095      28.60322454      33.03687030      30.21276725      25.35892220      18.13906162      14.71741253      23.66342725      33.00995979      33.15440852      32.11777162      32.15626373      31.80870796       6.55723790      31.17263981      18.63320105      23.74480341      32.74144026      23.42738024
        23.51055428      32.28034162      24.20178386      23.62036644      23.71771108      24.92117435      23.60151525      33.25421460      23.51182354      14.08410945      15.21570646      23.60360752      23.73430920      19.19488447      24.23654598      24.05016528       8.65118106      23.70652156      23.44844762      33.21176513
        18.96819485      26.98761223      24.20217692      24.03575196      19.46823652      19.10376668      17.12001366      18.38953325      33.03976419      17.70753209      17.75019775      19.60766588      14.15163309      18.26526273      31.39824647      19.10566911      33.31279459      33.03206404      28.61018170      33.18207822
        32.55267011      30.36727593      31.23809500      19.56538579      19.26731455      23.13794000      21.37205390      19.00351164      20.51745346      23.21603303       9.49935782      20.44190599      22.29713889      24.43588896      25.03191630      18.56278718      29.49020798      31.88059009       7.15549210      27.72445396
        26.83272304      25.93422484       7.99789268      33.49429492      31.38341349      24.12352452      21.44756171      11.22796790      32.87555063      19.02532110      19.27449803      21.66235528      21.71695551      33.10845683      31.80443039      21.75324260      21.79779020      33.47878078      21.70862512      33.40120126
        21.70844873      18.65360267      16.63973008      21.75021202      21.84040046      17.33113951      31.46875635      22.22334290      17.53370268      21.79742297      21.66651325      22.17711416      20.60318081      21.88892636      21.93373078      19.87007390      32.39415522      22.02460056      22.06965480      32.89476378
        21.97975218      31.69873781      22.02482965      14.64401567      17.25051795      22.06873676      22.41837101      22.11465933      31.74173893      24.25134004      28.37829986      25.21089123      33.57721643      21.97798260      21.93432680      22.44715078      18.38818803      23.75502233      24.48819333       8.89565973
        18.41625626      18.53644333      17.34246196      25.52278190      19.05072018      18.70407506      20.57063287      18.12827703      23.72204351      23.56055309      22.73185280      21.73666436      22.56912463      20.73174609      17.97197735      10.25382663      25.68693812      24.05884572      24.70638143      27.47168037
        26.33720528      27.31022111      31.32940086      28.27987488      29.24644680      31.48627565      32.80470859      30.52742503      33.20961722      33.15240702      33.57218564      32.42583439      32.22725457      23.34262713      23.76855335      23.76728311      32.78232924      23.82843089      23.84352402      32.12225525
        23.91722157      23.96310320      33.57050975      23.97817827      23.99216397      32.12416000      23.84212967      23.90337342      23.81729716      32.69747052      23.82663573      31.96800451      21.99935135      21.99775542      33.53063053      21.99706150      22.04274167      33.08631272      22.08711574      22.13323685
        31.77895862      22.13211252      22.17828645      32.66311257      22.04210264      22.08814245      21.88520160      31.73651054      21.84195179      33.44081690      22.22211367      22.26829978      31.40879550      22.26715043      22.31330522      31.58672141      22.35718102      22.40329039      32.22304816      22.40216990
        22.44827659      33.36653247      22.31217236      22.35829899      22.06014690      33.09112827      22.08938726      17.83810851      18.12167021      22.51783625      19.63914312      17.94162172      22.07816944      17.54509753      17.55107009      28.78755651      32.53408058      17.64324579      16.37457610      17.91706048
        16.64166547      15.91084479      16.02539922      17.22067195      16.21105994      19.19475991      18.44585341      18.53204271      18.89773767      20.36304862      19.17313788      18.48653831      19.02881029      17.72798306      17.05893519      15.88927022      17.08449886      19.92804442      18.68889073      18.53354878
        19.59649653      17.14865849      17.62253138      17.56124968      16.86153599      16.67569780      15.93007821      19.55764107      18.06818675      19.21651945      20.70688040      19.22368483      18.48716791      24.54305397      20.36174524      22.07414627      21.34072067      16.34812101      17.46596413      17.93864659
        17.03657594      28.44013994      29.40733993      32.24597091      27.95717763      32.64897101      32.79500558      32.05421149      31.76233317      19.69413744      32.54962809      32.54591581      31.70015764      28.68236697      33.46479723      31.76924685      33.37912043      16.51432542      18.36818224      17.41508158
        17.97245667      17.98768761      17.02362261      18.22088465      19.36688153      20.18430578      20.77257320      20.09519346      19.40686055      17.84493332      18.87077887      17.52121928      16.40202184      19.27517348      19.91715194      32.70003950      31.94872887      20.29911137      18.75394634      16.23299596
        17.18066030      17.74330830      16.65858859      16.89378601      18.21305450      16.66203006      15.92353396      19.27672926      18.66051935      18.73133159      19.46720322      19.00009005      19.70116858      18.25008455      19.05073452      18.02865383      16.50609749      17.29614876      16.59531862      19.71443885
        19.22501235      19.04154882      19.76430848      20.06841646      19.62059045      26.49890853      25.08700762      23.23609636      21.57278736      16.23710981      17.02481489      26.26884810      25.03460961      29.88978279      29.89606914      30.79989746      28.92470561      33.50489554      32.75069398      33.28847625
        28.01924002      32.19343309      33.35490801      33.12910950      33.58050899      33.13615169      33.54995947      32.95380184      31.92640560      32.71006807      33.18910035      32.60577163      33.01594095      33.04052442      33.56249574      33.08416923      33.46545775      20.83990441      19.32542427      33.08435191
        33.46359395      32.49650276      32.96056615      31.27700768      33.15726135      30.01277869      32.10080599      33.05979732      33.37871735      17.21301008      17.80355083      17.37444533      16.71010015      18.66378119      19.44308913      20.32815967      18.96888031      18.39798944      19.09026048      32.50459949
        33.25037278      33.12239597      33.53166885      31.57681820      33.24088759      17.25150628      16.51492925      17.12267835      17.79916900      20.34481241      19.75276046      19.34222141      18.55737419      19.20059929      19.91859513      20.96653225      32.53357196      20.04130138      32.52534757      17.70623396
        16.60179019      14.32027083       7.72581008      20.64870860      22.06368592      19.72173733      25.11047994      18.62181979      19.04084666      26.01281546      25.81298550      22.00282442      21.07581660      15.87853203       9.56989381      30.36985419      29.19079725      33.01540009      33.43467799      31.99549233
        33.28950196      33.00084723      33.23369121      33.47589332      33.12726102      33.32934025      33.09922113      33.31843443      33.09331544      33.16778222      33.06740602      15.46905345      12.20552530      20.14362742      20.74591123      20.41136718      19.35887066      19.78226339      21.02401750      33.44454262
        33.12728546      16.55274140      15.49617111      16.28666040      10.50949798      20.43272847      19.09739667      19.70414457      20.38229688      17.12122634      16.68846873      26.57903858      24.01077062      22.66847494      22.23005107      30.85119696      32.20473884      33.09819466      29.77526174      33.54219842
        33.17204301      33.07407882      30.72202686      33.10640088      31.59657921      33.07795589      19.88599720      33.04966003      28.38571704      32.73225127      32.41030836      20.92814002      21.70697052      33.09241447      20.81660542      30.96061259      31.91101692      19.90898599      19.73892883      25.73967796
        25.06760191      30.53757674      31.59273584      32.53395568      30.42746414      33.31331466      32.34937838      21.05719881      20.18964861      25.23694933      23.10005667      32.29518742      26.51494377      -4.27630382      -1.83360634      -2.85775277      -3.74552518      -2.70593151      -3.00548667      -1.15943001
        -1.66090405      -3.97451688       0.18939671      -0.81773871      -2.27288841       0.52012457      -1.60798056       1.13028177      -1.05117562      -0.19686975       2.63655536       2.87006792       1.20561814      -0.10835351       1.02312340       2.20998991       1.19880404       2.20213711       4.21674795       3.21432710
         0.55146465       4.59799890       4.93336654       4.87852073       4.37560393       6.23052956       5.22267678       3.75765954       9.38560297       4.43060825       5.37822348       2.00804798       3.85406872       8.67078041       8.89101657       7.24378515       5.91219202      16.73599386      18.00529218      17.05357427
        15.61393908      17.66820776      17.21390935      17.09245520      12.52703048      16.84581612      18.58005050      19.89164483      18.95259539      19.58090385      19.05061819       7.05870501       8.22914746       7.23057723       8.22360105      10.22364552       9.22608345       6.58214974      16.01729809      10.43706661
        10.87738140      10.37997414      12.20598299      11.22213300       9.77717332      11.86771261      10.93528273      13.67201468       8.04184549      16.24622522      11.37244209      11.94777699      15.95876469      11.89887084      13.02147376      14.16464839      13.18810129      14.72877402      14.96898292      15.69696935
        32.89930457      33.63492396      33.18085890      31.32115192      33.30509781      32.18509883      32.36794318      29.56421218      28.24193921      32.57080638      31.83125685      27.80265668      28.97895131      28.09541483      26.01305571      28.11919182      29.36271636      30.00554448      29.12451597      30.73205851
        29.85790771      28.61922490      30.44296800      27.15146290      32.50613916      29.42403142      30.88571624      30.07374357      30.60347359      20.04945955      21.75372529      20.82664069      20.02716044      20.97606485      20.49505270      21.47020945      20.50783764      22.08669088      23.42251254      24.65545131
        22.52518124      23.59279828      22.67712169      23.59390494      25.41071585      24.50487472      22.68931459      26.45729145      25.60856911      26.46216335      25.56255797      27.20708990      26.31145495      25.00420446      26.91086673      22.25304207      20.42977388      26.06240640      27.35824856      26.45748044
        27.05633295      16.15564739      14.11878027      15.25106556      13.58819366      20.07285689      20.33256773      20.51185185      21.03008179      15.73289558      11.76155501      15.86830379      12.55116006      20.46946203      21.09715441      15.77531039      15.39628277      30.99821570      32.53710761      32.37283146
        31.98174844      32.37566393      22.80637833      31.48145403      32.02261749      16.68251850      16.10840226      32.39420096      31.91634424      21.58110534      30.71186531      22.47794174      20.31925849      20.31677319      32.51133675      13.23664824      12.55379359      19.86247147      21.18805217      22.14897317
        31.98342906      20.89934888      20.28238786      32.30865451      30.85509262      21.30770859      31.98352012      -0.71514545       0.74905931       5.31261931       5.95850372      11.31831425      16.11558795      30.72473337      31.35967751      31.38797514      32.15019520      29.73726448      32.59547910      21.00612443
        21.48858295      24.02980309      31.90863876      15.40827749      14.57298435      20.94384111      21.45899971      21.38117265      19.82396501      15.60313488      15.16676977      14.32129741      11.75595299      14.45684306      11.77858509      20.39043125      21.78814604      30.20058737      21.24131141      15.87259075
         3.49087537      15.10864591       8.92521547      31.89970881      29.59491320      32.40262209      29.49576899      32.49784998      31.78494210      32.40216612      30.96950941      32.48895385      28.21149781      32.58226670      31.26756040      16.30425187      12.16154748      15.82313680      10.94796073      32.41782965
        22.53529159      31.79311323      21.89786323      15.26081499      14.91208072      14.88120158      15.68321772      31.84128420      30.25921309      -0.07003248       2.88650402      -2.20563779      -2.05880980       6.77707446      11.61801354       3.54942258       2.35838652       9.57468960      15.24326613      30.96322208
        32.10669838      20.68584843      21.35801702      21.22054225      22.33672879      21.02837678      20.99444396      14.58675994      10.61591423      12.79266994      12.81923834      13.38716811      14.59283568      31.86687451      31.90168076      28.15732537      31.78778335      31.36046462      30.78040622      21.17682274
        22.12752336      30.98886137      27.00277366      29.22636239      22.63879652       5.52490132      -7.33391849       7.29988519       6.89735609       7.29251729       5.32237134       9.67574558       6.61779348      24.85731472      26.86518157      26.19194963      26.33910666      21.02150870      23.43742599      22.28619170
        25.03010066      14.23706758      13.22157827      21.01267648      21.86362558      14.57222224      13.73640037      14.19367474      14.78083882      15.63075578      14.73151285      13.46851844      13.08469735      30.87467778      30.17309546      21.97748948      21.78561040      31.01848338      30.14652731      31.17306804
        30.36072180      12.79587505      15.41994684      30.14302274      28.52806400      31.00770650      22.61295751      15.57065787      14.57615381      21.19537073      23.73534001       9.66475083      15.01194232      24.54111082      21.61568023      26.75251660      24.24122336      22.11920155      30.12553244      13.85148856
        10.49243560      13.29205175      11.73926533      14.34114785      13.86427363      15.00096791      11.30820381      13.15419368      10.23155097      30.73533038      30.18264342      30.72312155      23.51474635      13.47077253      13.68773006      29.66989197      26.25569954      28.36234913      23.35876716      27.47457095
        24.64852801       7.98008916       9.42970422       9.06117601      12.78385957      13.00174624      13.89512391      22.78296488      22.18617364      -1.14979644       2.61660553       7.15418775      13.65687447      25.84023554      29.04399273      11.90988775       4.23817204      28.65088930      28.23050299      24.09477493
        23.11967231      31.60815777      29.73402951      29.98791231      27.15889166      14.11221571      14.53813948      23.71028065      22.87723805      24.71842677      23.13415323      14.13895115      15.59873510      31.40284451      30.27092379      23.29084893      24.25238770      32.19117345      30.14189930      27.45552601
        27.67245951      25.93691588      28.11304060      -3.78192946      -3.04527572      11.37690748      11.99452020      22.14063629      27.36506895      22.99948019      24.64132564      12.66982552      13.23463838      12.54060309      10.88080719       8.13879288      10.20188892      23.97707093      24.53331133      -0.93932194
        -0.27196378       0.77556488       3.15631960       4.99595071       3.59435865       7.00389732       1.29443062      29.08847752      29.01229389      15.05694594      14.52651556      14.11895034      12.31163163      -2.05516785       0.51248168      24.30933180      22.73961366       6.45158239       5.27807258       9.78963179
        10.95246125       2.35883635      -1.23015242       7.94691034       5.21687248       5.35881895       2.01471281      14.70821039      12.01808739       1.05468449       1.58569530      24.23918903      23.97495143      25.59183409      24.84964270      12.82168539      10.54791745       8.54825499      12.68025635       6.25564710
         6.46797302       1.19567863       4.38128513      24.77705755      27.46376961      11.17273254      10.25815546       9.48868282       9.38744389       6.20937258       8.28340726       8.47135565       6.93481805      24.60546790      25.62168361      25.63236838      26.40095118      10.01943331      10.15141495      24.22209237
        27.15516388      25.94219595      26.21458462      11.40424726      13.02117127       8.68293683      10.07045062      23.21752669      24.51754632       6.73640327       7.58227590      11.15198375      11.15071702      11.89357300      12.87782876      28.24011119      30.10744333      26.51851130      29.23679796      26.00692525
        28.11983251      30.61563619      27.72137844      30.97741690      28.08729555      25.76895304      25.92047651      22.38173942      23.22786562      23.82240959      24.36694572       1.49577696       3.12431196       3.08977873       7.68678425       4.70662073       5.70753285       5.78683573      10.20436437      -0.56846077
        -0.23917111       0.93232041       0.68376503      13.03667299      11.10612283      29.41452790      27.80530261      26.43407765      24.98795398      28.63910534      25.88623720      24.94214564      22.90207279      26.81866845      24.67131141      29.14673697      28.22183941      25.80324238      28.27901253      26.29535080
        25.62910357       3.68419287       6.12030202      28.80089731      27.40585437      29.12582439      26.44659256      26.47951235      27.87258207      26.58652650      25.47939563       4.13873277       4.85427216      27.91258691      28.82670006      29.03568305      27.12124221       8.38127830       7.85265935       2.20855744
         4.26559241       8.24221847      10.39586531      30.06517675      28.52275253      12.58376120      11.64241509       8.98705049       8.10679794       6.68277528       8.66781084       9.05676562       6.90076557      25.43346057      23.93280709      28.92731666      26.89633708      -5.70149964      17.92473797      -5.76609962
        -6.40445102      -7.10631229      24.34949888      -6.43963653      -7.05829854       7.46570060      10.90696474      -4.48241492      25.32750892      -3.73918149      -4.41186057       8.59416240      -5.05259298      10.75529472       7.68289863      11.70957843      -5.12423033      18.45406667       8.94320389     -11.07659816
        10.16889981     -10.17706035     -11.25424850     -12.33349475     -12.15448903       5.88413464     -13.23244662      12.49115499      23.74501911      -8.12765065      -8.02465724       4.17117969       6.33955793      -9.13941991      -9.01241887       3.72206435     -10.01255961       5.05651144       5.25560359      18.81867597
         9.58448397       9.53720391      32.51398164      -1.36800804      16.08953284      -0.56952518      -1.48932288      -2.95989770      -2.28181175      15.01260335      15.07424962      15.23021046      17.52962509      15.51431809      19.92311896      15.62300135       1.70397753       1.62123224      16.78008423      17.02099905
         0.84947457      14.60592087      18.09383094      20.97927044      17.59769153       9.87593101      10.73329545      10.23935079       9.85486809      17.37983688      17.10957382      18.69952111       9.93311298      10.74171098      17.38029945      10.86231380      18.16032738      18.80693818      18.13277073      18.18320781
        18.95266380      17.23922723      15.90387816      18.30084149      17.01284262      17.72486182       4.02989178      18.18079582      -3.70971446       8.25067452       6.95865812     -17.01814707      24.79282911     -16.33430214     -17.01573179     -17.56790794     -17.65521573      -5.46635997     -18.22982615      -1.10173497
        25.03807225     -14.32484785      16.90184099       3.87232830     -14.50263118     -15.54991419     -15.41694755      -0.65559722     -16.33470472      -0.65596366      33.57576129      14.73550278       3.36823858     -18.12712211      -4.90135706      -3.25677741      -2.26487080      11.89085807      -6.69798124      -3.31132680
        16.91431270      -0.23332245      19.80334789       1.79293727      -0.15075669       1.69500777       3.79398215      17.67333075       0.77417921       2.78987043       9.32444782       5.81184856      -1.24448711      -2.18643223       9.13294132     -13.42492527      19.72273644      17.64560550      33.20023996      19.04485151
        17.88158030      18.10366459      17.97619130      17.99845155      17.60943783      18.50539766      16.29176657      18.88449147      18.85198273      18.07259456      17.49268496      18.70210019      18.95746539      17.68703334      17.91196042      19.20146206      17.84330989      18.73764523      19.50108994       7.81007969
        14.01542311      15.81993658       9.80460863      10.26574626       6.80808723       8.80734453      10.21570698      11.78953365       4.79825496      13.75196312      16.51574296      16.65466702      15.13224394      23.51374265      12.77351773      16.09638311      19.73302212      25.39898671      10.80497915       9.88382668
        10.23072932      19.34142243       5.37906952      16.06344919       8.58426698      17.16504272      17.24496671      17.11677179      16.29067617      18.36123379      18.05214375      18.38707121      17.21506295      17.00501115      22.12246721      18.53584430      16.65271096      17.79059324      11.37149475      23.39183646
        21.40720070      20.40124734      22.40002243      23.10159365      23.06782777      24.34066253      19.38369368       8.94030079      22.50380107      19.08436044      22.02557925      17.59606393      16.66885667      17.34908689      18.65117964      18.46168700      18.23546292      18.28649782      11.20330930      23.48142627
        18.48922019      23.10246887      23.49031022      23.17123695      23.15740458      23.83201125      18.83591879      23.96747565      22.65792004      22.61056834      23.84121561      24.37797566      16.35902643      27.63388676      17.55215359      19.72213764      29.56790646      29.25414099      26.66202834      28.60242123
        33.03682817      30.21199748      25.35870014      18.13815069      14.71665977      23.66306686      33.00989305      33.15391414      32.11761113      32.15649232      31.80795968       6.55660940      31.17188022      18.62810867      23.74399245      32.74077490      23.43058574      23.51345321      32.27960232      24.20089775
        23.62091329      23.71682085      24.92030794      23.60147710      33.25657232      23.51175935      14.07977618      15.21507061      23.60464521      23.73460991      19.19462195      24.23629628      24.05011861       8.65115982      23.70962994      23.44837774      33.21171969      18.96780270      26.98741059      24.19846804
        24.03538348      19.46716602      19.10268878      17.11520850      18.38424366      33.03930434      17.70213887      17.74955453      19.60713910      14.14678342      18.26031787      31.41553322      19.10076865      33.31573858      33.03203784      28.61014591      33.18205999      32.55201724      30.36726530      31.23808327
        19.56468406      19.26698527      23.13420065      21.36829028      18.99922377      20.51361527      23.21232595       9.49925991      20.43811307      22.29339102      24.43503880      25.03187275      18.55896119      29.49019230      31.88057058       7.13466787      27.72442101      26.83268204      25.93418151       7.99779557
        33.49409909      31.38261888      24.12348413      21.44374496      11.22769878      32.87550621      19.01996163      19.27398363      21.66376530      21.70876530      33.10896814      31.80431524      21.75376530      21.79876530      33.47883269      21.70876530      33.40161261      21.70876530      18.64786552      16.63947363
        21.75376530      21.84376530      17.33022880      31.47524314      22.22209870      17.53345179      21.79876530      21.66376530      22.17709870      20.60241285      21.88876530      21.93376530      19.86535256      32.40003223      22.02376530      22.06876530      32.89380452      21.97876530      31.69749530      22.02376530
        14.63994353      17.24959716      22.06876530      22.41837590      22.11376530      31.76262899      24.25108982      28.37748376      25.21067569      33.57775496      21.97876530      21.93376530      22.44709870      18.38226238      23.75477682      24.48732947       8.89153591      18.41010118      18.53550313      17.33687103
        25.52256100      19.05047278      18.70316792      20.56973655      18.12735167      23.72180904      23.55968219      22.73161767      21.73643060      22.56825189      20.73151791      17.97165269      10.25367875      25.68610410      24.05799079      24.70615801      27.47147441      26.33637611      27.30940845      31.32862860