# File generated by Flopy version 3.8.2 on 02/18/2025 at 17:59:33.
BEGIN options
END options

BEGIN griddata
  strt
    INTERNAL  FACTOR  1.0
        -4.71618440      16.38710596      -4.97813498      -5.63066505      -6.35777689      24.11077044      -5.64880077      -6.28306720       4.16889417       9.38743397      -3.70374943      25.03174487      -2.98830012      -3.67145477       6.14165653      -4.32368929       9.20320505       4.29744928       9.59329595      -4.35001327
        16.00816464       7.05279775     -10.39969114       8.48114635      -9.00751906     -10.11545139     -11.67528527     -11.49395549       5.44072836     -12.61709813      10.89921718      23.54133305      -7.41426688      -7.24297415      -0.34500366       2.20212562      -7.94055309      -8.26989511      -0.30309055      -9.32648400
         2.17610057       0.77563006      17.12225987       8.00835194       7.94952972      30.04196982      -1.10959483      14.28136099      -0.33772648      -1.20469895      -2.15994676      -2.06186082      12.65059740      12.60456374      12.32371246      15.49199162      12.16126488      17.93531149      12.48396437       0.74095959
         0.56228468      13.93048813      14.28264569      -0.19753205      10.73352430      15.69090770      18.95960726      14.97341420       8.31482276       9.22521063       8.69534009       8.25541688      15.01895668      14.74364687      16.69860140       8.41092799       9.21749299      15.04369949       9.30063047      16.06393908
        16.79544891      16.01517784      16.03194151      16.85569994      14.91953871      13.78137342      16.13303467      14.65429340      15.22653784       0.73879042      17.24314261      -2.97137421       6.14848966       5.00286544     -16.54218200      24.50980442     -15.85007942     -16.52957214     -17.20570361     -17.21923969
       -10.34371591     -17.88115634      -2.73046923      24.77136537     -13.73994601      14.57556157       3.55238429     -13.92809550     -15.01616805     -14.86795350      -2.00136497     -15.83128799      -1.94297630      29.53438305      11.00501404       3.04949527     -17.81154871      -9.37655345      -6.14939347      -4.25293353
         7.72756738     -12.26893711      -6.11699302      14.21077368      -1.05446791      19.19788934       1.44357467      -0.90588521       1.32325789       3.47215131      15.55732714       0.34161768       2.50399933       7.60649656       5.36653156      -2.75099290      -4.19082611       7.44200414     -12.79868634      18.95954017
        15.41218133      26.03982189      16.97513039      15.68264325      16.13187645      15.82758086      15.92409244      15.65889370      16.35341162      14.44794074      16.82145339      16.81262415      16.06721362      15.42089698      16.68137324      16.96173250      15.72846362      15.92343605      17.19262217      15.80969275
        16.62352244      17.52239297       7.18454935      12.25097649      13.65985877       8.93214093       8.78351264       6.28526616       8.06445916       8.71625060      10.64400616       4.42797742      12.30840435      14.37297807      14.78993830      13.47512146      23.27808974      11.47624062      14.31089083      18.95400749
        25.11206610       9.79594135       8.99560219       8.59482353      17.35671127       4.97683084      13.88335828       6.78181211      14.23691044      14.36377856      14.31382568      13.38443037      16.87099442      16.33399127      17.06589360      14.39575541      14.23824101      21.84282293      17.17347694      13.88657037
        15.51055728      10.27693514      23.15857475      21.01453248      19.83311190      22.11313082      22.87705385      22.82779724      24.10726728      18.50753372       6.06909117      22.25189244      18.04786768      21.68168784      15.02100759      13.93163927      14.61928448      17.64202709      17.56716511      15.83374624
        17.74200460       9.66871504      23.26646259      17.42241881      22.88453193      23.27126633      22.93319602      22.92559830      23.61203901      17.45877852      23.74601652      22.40796276      22.37176078      23.60818621      24.13893655      13.50906176      27.09419456      15.21440839      19.05316713      28.61669145
        28.40640531      26.24500901      27.89178340      29.73129852      29.04016433      25.06734506      17.14813859      12.74725021      22.67002353      29.57315479      29.51568136      29.76728750      27.53780118      29.75910695       6.04999578      29.53324219      16.55625001      22.77960304      29.75722063      22.50416967
        22.63618611      29.80751843      23.96509057      22.86132394      22.97645677      24.65440980      22.74530584      29.15284690      22.68097008      12.33724895      13.24548157      22.79522610      23.04305139      18.49567389      23.99204071      23.47980493       7.07247185      22.92695404      22.56913545      30.02181703
        16.71775657      26.53493926      21.82755670      23.40944991      17.82834001      17.24734675      14.83108503      15.96106590      25.64189085      15.18747274      15.23124784      17.96642312      12.49442372      15.84918870      24.01522169      17.07620760      24.55168322      25.09444792      24.78514859      25.33634079
        25.37368605      25.42286832      25.52292977      17.82495480      18.05141922      20.93175407      19.32741215      16.99046941      18.51110064      20.99412829       7.77122072      18.43877445      20.18044288      24.19563398      22.47866634      16.59628379      25.16468970      25.51622090       2.81415856      24.31637681
        23.76294520      23.14762251       5.94810928      27.47708396      29.62366871      21.76021048      19.40009047       9.70216198      25.08913722      16.93048211      17.34969779      23.69629910      24.24121428      26.04167047      24.71487558      22.20700839      22.29180357      25.85238216      22.12145371      25.04787084
        22.08118077      16.49553467      13.84191551      22.16151457      22.33708873      14.57810887      24.15787850      22.73180050      15.19053132      22.24652591      24.23815695      22.68680333      19.00150536      22.45874610      22.56743642      17.88067313      24.23322271      22.73767105      22.81713754      24.23973715
        22.65262696      23.99475566      22.69252284      11.88223343      14.67362830      22.77760207      23.22654358      22.84422248      23.72099181      23.99383487      27.73126529      24.91279416      29.60319377      22.60718679      22.50396645      23.21376871      16.20848437      23.51079455      24.24988700       7.20268057
        16.20907117      17.73429245      15.09777694      25.21815936      18.05318836      17.47787993      20.05502855      17.10091497      23.48794609      23.32898442      22.47062891      21.38519420      22.29817915      20.23024231      15.73638033       7.88963763      25.35965584      23.82428742      24.44840426      26.95900881
        25.95235337      26.81866882      29.60963723      27.63649341      28.38885837      29.64106459      28.43001829      29.22514414      29.33914909      28.50698121      29.17206945      29.75480973      27.75812014      22.38827011      22.82494846      22.87341914      28.62134849      22.93455318      22.98353696      28.13117650
        23.16366181      23.22952359      29.72239439      23.29469482      23.34390052      28.02774351      23.04956822      23.11469121      23.16181593      28.89626041      23.12428297      26.11736436      23.53267124      23.60159342      29.39589680      23.81898345      22.39424078      27.83855710      22.51847515      22.56183705
        24.40368911      22.60183093      22.64682262      25.41763046      22.43338876      22.47842103      22.41817840      24.15491777      22.37284905      25.61380482      22.79363366      22.83364570      23.93357380      22.87861291      22.91865021      23.93251831      23.04678791      23.08865448      24.13431130      23.13365357
        23.17368186      24.68171126      22.96178194      23.00177810      22.83843082      24.55200019      22.85560829      15.29527377      15.59179480      22.19649572      17.96228638      17.04512114      21.78859990      15.21219925      15.27510416      28.07133847      29.17313336      15.33636348      14.10850918      15.34764827
        14.31153435      13.24755458      13.12590645      14.23713041      13.69222664      17.16682201      16.35386659      16.39639350      16.95949943      18.43776307      17.13432975      16.39521041      17.05743078      15.56725467      14.89393826      13.73602886      14.70814224      17.94386263      16.68002547      16.43033334
        17.58783474      14.99814680      15.42161256      15.56439267      14.91526556      13.85413970      13.09462892      18.75952063      16.76064440      18.46427057      20.26699462      18.47849353      17.40334955      24.29660384      19.87820746      21.77818413      20.97658050      13.82636657      14.73753582      15.49593138
        14.62658597      27.76819572      28.50999047      27.85460298      27.37506005      30.21400075      28.72498129      27.86960964      27.20998492      17.98395790      25.01550727      24.47273928      24.07446580      24.83847073      24.95604205      25.57110746      24.60018261      14.41700996      15.82946901      15.02185587
        15.38887674      15.55782908      14.65398358      17.24655388      18.58515945      19.18522700      20.07634829      19.17829466      17.97233544      16.15903566      18.04970284      15.22141045      14.14121877      17.33488418      18.50831758      26.28663355      25.35080651      18.91686220      16.74325407      13.97410875
        14.83879128      15.44548950      14.36310284      14.64843062      16.02455289      13.93788743      13.32959281      17.40982733      16.53184556      16.61719092      17.71092665      16.91385039      17.70156454      16.11552895      17.10716040      15.93005023      14.39525216      15.00713330      14.35707285      17.71722453
        17.22197248      16.96389993      17.75430344      19.46316995      18.94774860      26.09828322      24.81050390      23.00632924      21.21304053      13.80013084      14.07443865      25.90775082      24.76680494      28.84870619      28.85685494      29.41588344      28.15597895      28.93289231      28.24056108      28.79277926
        27.43890310      28.19969412      29.91418201      29.97116294      29.23478910      29.99928145      29.44059550      30.21291044      27.94044518      27.54156016      28.40690367      24.58830887      24.93843509      26.43479646      27.04163900      26.77803581      26.08345000      19.14114595      17.40300567      25.78142614
        25.13366046      24.30592083      24.48459780      23.78604790      24.87979285      25.40042668      25.60764859      25.26963609      24.71435416      14.88536938      15.28709034      14.95212195      14.41387744      17.83934690      18.75196621      19.21555457      16.60592255      17.26772817      18.30898847      29.39488343
        29.30895254      28.42344838      28.01655403      24.89765221      27.34518582      14.90557353      14.23073702      14.75399987      15.02447420      18.78058003      17.80697257      17.44470506      16.45464873      17.29434978      18.29250692      19.72747108      27.60110452      18.35863540      26.46084057      15.61267273
        14.55834164      12.76707756       7.09975964      18.68542946      19.97759766      17.73764620      22.54611406      17.67271348      18.09120510      25.66724781      25.48737036      21.70624641      20.65639692      13.78549662       5.53322931      29.14465521      28.36295054      29.75776622      29.00909498      27.68209082
        29.72629721      30.18970234      29.11268866      28.33834011      29.23381097      25.17560567      26.11956840      24.73559256      25.43428130      24.45342763      24.94738272      13.41376193      10.70496592      19.61624862      20.08327090      19.34032013      17.43404694      19.17206842      20.61783495      26.25748959
        27.37292072      14.30351272      13.37215330      14.23842479       7.02782649      18.74229566      17.09137840      18.03313490      19.04511459      15.00292023      14.67669273      26.17651748      23.79419900      22.42350043      21.96638970      29.41092940      29.91743859      29.79890331      28.79316073      29.27908952
        29.87474231      29.66044131      29.50365889      28.71545822      29.47476380      25.90262761      18.05370383      25.33148869      25.38411117      25.23531520      25.40306753      20.13690099      21.11794479      26.97887629      19.52177758      28.04204842      26.94652458      18.12587889      17.82150946      25.41490215
        24.80304186      29.26298743      29.74797984      30.15257530      29.21619997      29.90013171      30.18337152      19.42488935      18.40509125      24.96089737      22.87795082      29.93962464      26.12547594      -8.34781746      -3.58620762      -5.22607898      -7.62133063      -5.15603382      -6.28821109      -2.66760055
        -3.43740150      -7.52335746      -0.42985260      -2.12663228      -4.62617321      -0.07937833      -3.46812935       0.64669279      -2.93351880      -1.96156391       2.29741294       2.57768522       0.82169404      -0.97071331       0.61500138       1.88336813       0.79216828       1.87435913       3.88543408       2.93530345
        -0.07798734       4.14764812       4.54509804       4.50370029       4.03332030       5.76014604       4.83131063       3.41681940       8.55561925       4.06406923       4.97425508       1.66157857       2.38992581       7.88747282       8.12625837       6.65147449       5.45215172      14.85185489      16.07239305      15.15090423
        13.87205135      15.69398897      15.28126843      15.16808906      11.25821581      14.86871494      16.60375080      17.91063006      16.98554797      17.59226927      17.06368057       6.51254318       7.55987410       6.66957418       7.53383329       9.29357899       8.43360441       6.06474036      14.03920638       9.45442576
         9.85581039       9.41837546      11.00015968      10.15844253       8.87581079      10.70338723       9.87251105      12.22867914       7.35339081      14.32935686      10.26283399      10.72591717      13.94548034      10.71018263      11.68111421      12.65959410      11.82585019      13.12787921      13.32690574      13.95535520
        25.02374406      24.25331553      24.85162196      25.55902551      24.71583855      25.38944542      25.36570702      25.20896937      24.63695232      25.26987891      25.59161859      24.37772372      24.94445588      24.51750290      23.20974385      24.67643944      25.22435812      25.36252546      25.05503134      25.47622270
        25.27784611      24.88452815      25.45413454      24.07156716      25.74518270      25.20658078      25.55207041      25.51132718      25.56370797      18.05307943      19.68787383      18.82179632      18.03509149      18.96377959      18.49803824      19.44038181      18.50787256      20.01495810      21.20648331      22.20087247
        20.39442002      21.32374814      20.52570094      21.33140257      22.76207253      22.06428343      20.56918365      23.55464032      22.95542113      23.53060461      22.88985176      24.00058380      23.40777369      22.51178255      23.82123867      20.17939980      18.48408997      23.29467018      24.12289147      23.62401280
        23.96670986      14.31117496      12.56782483      12.50038445       9.53413310      19.51786251      19.84466328      19.89796228      20.17329082      13.59541545      10.16965770      13.37394411       8.26736047      18.62048011      19.39421115      13.72868551      13.33153711      29.62870479      30.08477223      27.08284678
        27.61146238      26.16122588      21.32985047      25.70212719      25.88724667      14.52244225      14.10234948      28.48134144      28.16332023      20.39471587      28.33811047      22.20815561      19.77592051      19.10177374      27.83190774      11.84115154      11.27560652      18.40330916      20.25814928      21.52222231
        28.99477354      19.91320271      19.06761403      30.00342820      29.46625469      19.98101417      26.53384737      -2.27955922       0.20808359       4.86031997       5.47945487      10.17279941      14.18767265      25.61985510      25.65741090      25.83809159      25.59100031      25.44744700      25.46194591      19.00074467
        19.46900425      21.75734283      26.12730633      12.26749110      11.07277134      20.53065126      21.12640807      21.03165974      19.22495935      13.46330120      13.11738682      12.09442944       7.68111961      11.87125129       7.50822161      18.50013822      19.92524253      26.40272264      19.41461289      13.76491555
         0.35429701      13.21867262       8.03298188      30.03463469      28.67653365      27.27417463      28.40862309      26.61422923      27.14583148      26.26182446      26.94329309      25.84737086      25.43405801      25.56789513      26.04045251      14.18607423      10.65966681      13.90885759       9.20790052      28.73503598
        22.05787809      28.42201596      20.97976709      13.43771532      13.00986169      13.17396184      13.85621060      29.91337592      29.15073714      -1.17363374       2.47790024      -5.29308012      -5.56341136       6.21821842      10.08411867       3.16865001      -0.66500163       8.67040826      13.39863520      25.75462661
        25.79384001      18.71520036      19.41493125      19.23299190      20.34137962      20.63643468      20.61929849      12.89095764       9.54251259      11.43639706      11.38039501      11.90050024      12.82273742      29.92423543      30.00897256      24.83426940      26.26017116      25.91645514      25.92851086      19.24937040
        20.08549213      29.60123287      26.56003763      25.41382576      20.73760503       1.49040038      -6.59595573       4.95464298       4.22421166       5.18377212       2.37650280       8.14437299       4.21885437      24.61567616      26.43782479      25.80766929      25.94847276      20.55091902      23.16793833      21.88303944
        24.70592516      12.40253337      11.56482633      19.94822799      20.96852394      11.27940324      10.11518367      12.29717155      12.79219788      13.28336984      12.59138303      10.70685378       9.77810081      29.58873270      29.10485434      20.50921704      20.32813320      26.72466883      26.88893784      26.13836307
        26.13729999      11.32381035      13.44643649      28.29879622      27.82846125      27.77854286      21.60803640      13.79965215      12.96761944      19.34109889      21.55383688       8.23748719      12.96670409      24.23081500      21.08277198      26.29639291      23.77275660      21.51989954      27.91359754      10.64310167
         6.15501628      11.51213004      10.12382470      12.46572268      12.01226465      13.16069271       7.66335893      10.83086301       6.01721641      26.35467685      27.33828252      27.24031891      22.50851364      11.88552905      11.85074058      25.67040482      23.65370126      25.84734476      22.18975993      26.15739921
        24.18965585       7.13670691       7.93791437       5.58624349      11.17984545      11.39616942      12.06318650      21.89643010      20.89634692      -5.42318007       2.10778767       6.52410432      11.88640168      23.22658779      25.50795735      10.30618129       1.57088022      27.96679259      27.62055847      23.74276250
        22.53321171      29.96193637      28.79263340      29.00965831      26.68715480      12.31415616      12.87832946      23.41986259      22.38526971      24.32388140      22.79763650      12.20253352      13.46674991      29.87049799      29.17423658      22.91339883      23.89803557      30.16232865      29.04572943      26.84580993
        27.08267470      25.52601037      27.48288377      -8.26008256      -7.58285710      10.14216454      10.51149364      20.51051889      24.40745378      21.01429229      22.50896190       9.90223005      11.31438410      11.06548517       9.52709215       3.99893686       8.11516011      23.25984336      23.51507751      -3.14453639
        -3.29199497      -1.93562364       0.62787608       4.50905702       3.03896344       5.53113257      -1.69298593      28.32053408      28.26100239      13.26144540      12.62866874      12.47260096      10.63650054      -6.51199449      -0.14118995      22.09791260      20.68217353       5.85773464       3.36072211       6.34110892
         8.59360605       0.31363914      -4.69556490       6.53445531       4.26383862       3.84303146       0.82690037      13.00391129      10.42791278      -0.34478433       0.66481716      22.24610155      21.87425213      23.09313530      22.42051551      11.26027914       9.16925899       4.36842837      10.49255186       4.54783290
         5.14185424      -0.85393455       2.72125473      22.79946846      24.71334292       9.91319789       9.09384704       8.21450396       8.04869213       4.06031487       6.76607126       7.19615358       6.07686365      22.88064019      24.23807793      23.29616107      23.98130004       8.50582979       8.72862645      22.40215840
        25.04509357      23.74203964      24.08659449       9.84862715      11.27058839       7.31889955       8.57757240      21.45699891      23.06956130       6.06586457       6.40199252       9.59843235       9.61130837      10.31764891      11.15028818      27.61908244      29.08906186      26.03952252      28.30237730      25.59633331
        27.50051709      28.99531351      26.97677697      28.88599803      26.85988822      25.21002568      25.05858580      20.67464472      21.35029332      23.02487635      23.05718805       0.95581209       2.42115019       2.13082771       6.62599864       4.15321199       5.07071227       5.04639797       8.97880913      -2.26177709
        -2.11347049      -0.09197788      -0.00549605      11.33280733       9.08592628      25.80195703      24.82557367      25.87516054      24.38225023      27.60195579      25.25427223      24.27827051      22.16263246      25.97436406      23.76431030      27.34218782      26.30100947      24.84216007      26.87484320      24.50345920
        24.39286618       2.93755815       5.10882881      26.93302078      25.84681956      26.92989407      25.14985307      25.34603223      26.32203949      24.92417975      23.80578657       3.08201453       4.08473558      25.91484344      26.29582868      26.01200882      24.82025073       6.65973337       6.17605924       1.81007294
         3.78004183       7.46778788       9.31571929      25.62033731      24.95800735      10.73847079       9.13813845       8.04079802       7.17052015       5.53364285       7.53971767       7.96742866       5.93459154      23.57873422      22.40590435      27.64401249      25.95375183      -4.72089047      16.38634617      -4.97911851
        -5.63177022      -6.35785172      24.11046236      -5.65124995      -6.28341131       4.16653123       9.38547564      -3.70404971      25.03146652      -2.99406055      -3.67615401       6.14008972      -4.32803585       9.20098015       4.29459221       9.59061601      -4.35028376      15.98299646       7.05144508     -10.40057858
         8.47943146      -9.00627264     -10.11987697     -11.67809492     -11.49461473       5.44011347     -12.61754125      10.89890240      23.53919507      -7.41461274      -7.24351094      -0.34366665       2.20069814      -7.94097321      -8.26997770      -0.30129935      -9.32648998       2.17595188       0.77658982      17.11805050
         8.00810882       7.94927570      30.04208618      -1.10987933      14.28048632      -0.33843315      -1.21496139      -2.16602064      -2.06216852      12.64893455      12.60282843      12.32151001      15.49193155      12.15993389      17.93527659      12.48346472       0.73822085       0.56166063      13.92886470      14.28209656
        -0.19783794      10.73273700      15.69040220      18.95951754      14.97240121       8.31328145       9.22312024       8.69376943       8.25518587      15.01820147      14.74172221      16.69545074       8.41055872       9.21717079      15.04185133       9.29848745      16.03857492      16.79188631      15.99142534      16.03117008
        16.85487291      14.91807102      13.78090242      16.13228361      14.65362779      15.22487707       0.74081059      17.24300673      -2.97168971       6.14778443       5.00237772     -16.54252322      24.50952711     -15.85231876     -16.53200768     -17.20820938     -17.21957492     -10.34630200     -17.88154954      -2.73133022
        24.76991978     -13.74038082      14.57402226       3.55193272     -13.93024626     -15.01879343     -14.86832549      -2.00210004     -15.83162420      -1.94373408      29.53634541      11.00419258       3.04880824     -17.81464997      -9.37806355      -6.15042802      -4.25357241       7.71014649     -12.27334369      -6.11783218
        14.21004401      -1.05516144      19.19488703       1.44308771      -0.90665663       1.32273369       3.47147672      15.53355707       0.34110459       2.50352247       7.60620228       5.36595297      -2.75159654      -4.19150705       7.44183832     -12.80135566      18.95898868      15.39740876      26.03865871      16.97468689
        15.68216895      16.13176634      15.81129496      15.92402494      15.65872821      16.35291636      14.44783756      16.81995064      16.81244318      16.05188279      15.42070554      16.68038816      16.96159899      15.72742296      15.92335011      17.19180448      15.79497369      16.62160740      17.52225774       7.18406703
        12.24915834      13.65932215       8.93182963       8.78324833       6.28472979       8.06406358       8.71593030      10.64376091       4.42735820      12.30820446      14.37259669      14.78934603      13.47495067      23.27777896      11.47554644      14.30994482      18.95347022      25.11067210       9.79566460       8.99528916
         8.59334162      17.35584549       4.97641698      13.88282929       6.78162653      14.23641514      14.36300474      14.31085955      13.38131265      16.86700410      16.33336019      17.06344481      14.39334940      14.23585396      21.84245853      17.17277694      13.88529798      15.50981304      10.27632938      23.15642014
        21.01410196      19.83007890      22.11272553      22.87670880      22.82743140      24.10693351      18.50420812       6.06911769      22.25153607      18.04717427      21.68130592      15.02008524      13.93137254      14.61891359      17.63963166      17.56640035      15.81144549      17.69480609       9.66838041      23.26614947
        17.41820182      22.88418586      23.26901320      22.93070609      22.92525758      23.60992432      17.45791289      23.74569684      22.40760369      22.36921738      23.60786765      24.13712949      13.50850196      27.09314747      15.21255996      19.05006728      28.61645613      28.40620568      26.24387991      27.89152105
        29.73236258      29.03999328      25.06590509      17.11624769      12.74488897      22.66915965      29.57393918      29.51583460      29.76732219      27.53935897      29.75910480       6.04963431      29.53286603      16.55497900      22.77870630      29.75779115      22.50433983      22.63632845      29.80749997      23.96478587
        22.86106834      22.97610730      24.65413180      22.74529522      29.15468640      22.68054844      12.33695326      13.24331732      22.79526468      23.04233859      18.49321289      23.99172523      23.47948038       7.07233710      22.92646172      22.56945891      30.02199030      16.71702189      26.53465409      21.82720179
        23.40917774      17.82748361      17.24332791      14.83080593      15.94128591      25.64190545      15.18710288      15.22987403      17.96574214      12.49219855      15.82784916      24.01482785      17.07320382      24.55277705      25.09290667      24.78506948      25.33628048      25.37370949      25.42355880      25.52364906
        17.82124289      18.04764666      20.93137702      19.32632824      16.99047344      18.50946467      20.99404168       7.77007356      18.43865609      20.18033762      24.19531303      22.47809983      16.59606121      25.16466896      25.51863629       2.80971853      24.31622209      23.76242422      23.14756894       5.94711228
        27.47744039      29.62326957      21.75944990      19.39863785       9.70170529      25.09002992      16.92652302      17.34901227      23.69552804      24.23864834      26.04221335      24.71499317      22.20376530      22.28876530      25.85254820      22.11876530      25.04791304      22.07876530      16.49505794      13.84025345
        22.15876530      22.33376530      14.57732017      24.15609927      22.73209870      15.18997130      22.24376530      24.23836403      22.68709870      19.00088594      22.45876530      22.56376530      17.88057452      24.23340461      22.73376530      22.81376530      24.24016388      22.64876530      23.99473793      22.68876530
        11.88198795      14.66948634      22.77376530      23.22837590      22.84376530      23.72069771      23.99353400      27.73039639      24.91251832      29.60322446      22.60376530      22.50376530      23.21209870      16.20500826      23.50861831      24.24807754       7.20159469      16.20623940      17.73408074      15.09646505
        25.21669761      18.05268098      17.47400959      20.05208320      17.10026132      23.48583850      23.32682864      22.46815048      21.38476058      22.29779162      20.22977188      15.73527755       7.88934011      25.35934146      23.82243986      24.44805846      26.95797570      25.95204442      26.81762971      29.60920857