# File generated by Flopy version 3.8.2 on 04/22/2025 at 13:44:51.
BEGIN options
END options

BEGIN timing
  TDIS6  sim.tdis
END timing

BEGIN models
  gwf6  steadymodel.nam  steadymodel
END models

BEGIN exchanges
END exchanges

BEGIN solutiongroup  1
  ims6  sim.ims  steadymodel
END solutiongroup  1

