# File generated by Flopy version 3.8.2 on 04/22/2025 at 13:44:52.
BEGIN options
END options

BEGIN dimensions
  NPER  1
END dimensions

BEGIN perioddata
       1.00000000  1       1.00000000
END perioddata

