# File generated by Flopy version 3.8.2 on 05/14/2025 at 00:18:14.
BEGIN options
END options

BEGIN dimensions
  NPER  1
END dimensions

BEGIN perioddata
       1.00000000  1       1.00000000
END perioddata

