# File generated by Flopy version 3.8.2 on 04/22/2025 at 13:44:52.
BEGIN options
  PRINT_OPTION  summary
  COMPLEXITY  moderate
END options

BEGIN nonlinear
  OUTER_DVCLOSE       0.01000000
  OUTER_MAXIMUM  400
END nonlinear

BEGIN linear
  INNER_DVCLOSE       0.00100000
  LINEAR_ACCELERATION  bicgstab
  PRECONDITIONER_LEVELS  5
  PRECONDITIONER_DROP_TOLERANCE       0.01000000
  NUMBER_ORTHOGONALIZATIONS  2
END linear

