# File generated by Flopy version 3.8.2 on 04/22/2025 at 13:44:53.
BEGIN options
END options

BEGIN griddata
  strt
    CONSTANT     -10.00000000
END griddata

