# File generated by Flopy version 3.8.2 on 05/14/2025 at 00:18:23.
BEGIN options
END options

BEGIN dimensions
  MAXBOUND  4600
END dimensions

BEGIN period  1
  1 2.73972603E-07
  1 2.73972603E-07
  1 2.73972603E-07
  1 2.73972603E-07
  1 2.73972603E-07
  1 2.73972603E-07
  1 2.73972603E-07
  1 2.73972603E-07
  1 2.73972603E-07
  1 2.73972603E-07
  1 2.73972603E-07
  1 2.73972603E-07
  1 2.73972603E-07
  1 2.73972603E-07
  1 2.73972603E-07
  1 2.73972603E-07
  1 2.73972603E-07
  1 2.73972603E-07
  1 2.73972603E-07
  1 2.73972603E-07
  1 2.73972603E-07
  1 2.73972603E-07
  1 2.73972603E-07
  1 2.73972603E-07
  1 2.73972603E-07
  1 2.73972603E-07
  1 2.73972603E-07
  1 2.73972603E-07
  1 2.73972603E-07
  1 2.73972603E-07
  1 2.73972603E-07
  1 2.73972603E-07
  1 2.73972603E-07
  1 2.73972603E-07
  1 2.73972603E-07
  1 2.73972603E-07
  1 2.73972603E-07
  1 2.73972603E-07
  1 2.73972603E-07
  1 2.73972603E-07
  1 2.73972603E-07
  1 2.73972603E-07
  1 2.73972603E-07
  1 2.73972603E-07
  1 2.73972603E-07
  1 2.73972603E-07
  1 2.73972603E-07
  1 2.73972603E-07
  1 2.73972603E-07
  1 2.73972603E-07
  1 2.73972603E-07
  1 2.73972603E-07
  1 2.73972603E-07
  1 2.73972603E-07
  1 2.73972603E-07
  1 2.73972603E-07
  1 2.73972603E-07
  1 2.73972603E-07
  1 2.73972603E-07
  1 2.73972603E-07
  1 2.73972603E-07
  1 2.73972603E-07
  1 2.73972603E-07
  1 2.73972603E-07
  1 2.73972603E-07
  1 2.73972603E-07
  1 2.73972603E-07
  1 2.73972603E-07
  1 2.73972603E-07
  1 2.73972603E-07
  1 2.73972603E-07
  1 2.73972603E-07
  1 2.73972603E-07
  1 2.73972603E-07
  1 2.73972603E-07
  1 2.73972603E-07
  1 2.73972603E-07
  1 2.73972603E-07
  1 2.73972603E-07
  1 2.73972603E-07
  1 2.73972603E-07
  1 2.73972603E-07
  1 2.73972603E-07
  1 2.73972603E-07
  1 2.73972603E-07
  1 2.73972603E-07
  1 2.73972603E-07
  1 2.73972603E-07
  1 2.73972603E-07
  1 2.73972603E-07
  1 2.73972603E-07
  1 2.73972603E-07
  1 2.73972603E-07
  1 2.73972603E-07
  1 2.73972603E-07
  1 2.73972603E-07
  1 2.73972603E-07
  1 2.73972603E-07
  1 2.73972603E-07
  1 2.73972603E-07
  1 2.73972603E-07
  1 2.73972603E-07
  1 2.73972603E-07
  1 2.73972603E-07
  1 2.73972603E-07
  1 2.73972603E-07
  1 2.73972603E-07
  1 2.73972603E-07
  1 2.73972603E-07
  1 2.73972603E-07
  1 2.73972603E-07
  1 2.73972603E-07
  1 2.73972603E-07
  1 2.73972603E-07
  1 2.73972603E-07
  1 2.73972603E-07
  1 2.73972603E-07
  1 2.73972603E-07
  1 2.73972603E-07
  1 2.73972603E-07
  1 2.73972603E-07
  1 2.73972603E-07
  1 2.73972603E-07
  1 2.73972603E-07
  1 2.73972603E-07
  1 2.73972603E-07
  1 2.73972603E-07
  1 2.73972603E-07
  1 2.73972603E-07
  1 2.73972603E-07
  1 2.73972603E-07
  1 2.73972603E-07
  1 2.73972603E-07
  1 2.73972603E-07
  1 2.73972603E-07
  1 2.73972603E-07
  1 2.73972603E-07
  1 2.73972603E-07
  1 2.73972603E-07
  1 2.73972603E-07
  1 2.73972603E-07
  1 2.73972603E-07
  1 2.73972603E-07
  1 2.73972603E-07
  1 2.73972603E-07
  1 2.73972603E-07
  1 2.73972603E-07
  1 2.73972603E-07
  1 2.73972603E-07
  1 2.73972603E-07
  1 2.73972603E-07
  1 2.73972603E-07
  1 2.73972603E-07
  1 2.73972603E-07
  1 2.73972603E-07
  1 2.73972603E-07
  1 2.73972603E-07
  1 2.73972603E-07
  1 2.73972603E-07
  1 2.73972603E-07
  1 2.73972603E-07
  1 2.73972603E-07
  1 2.73972603E-07
  1 2.73972603E-07
  1 2.73972603E-07
  1 2.73972603E-07
  1 2.73972603E-07
  1 2.73972603E-07
  1 2.73972603E-07
  1 2.73972603E-07
  1 2.73972603E-07
  1 2.73972603E-07
  1 2.73972603E-07
  1 2.73972603E-07
  1 2.73972603E-07
  1 2.73972603E-07
  1 2.73972603E-07
  1 2.73972603E-07
  1 2.73972603E-07
  1 2.73972603E-07
  1 2.73972603E-07
  1 2.73972603E-07
  1 2.73972603E-07
  1 2.73972603E-07
  1 2.73972603E-07
  1 2.73972603E-07
  1 2.73972603E-07
  1 2.73972603E-07
  1 2.73972603E-07
  1 2.73972603E-07
  1 2.73972603E-07
  1 2.73972603E-07
  1 2.73972603E-07
  1 2.73972603E-07
  1 2.73972603E-07
  1 2.73972603E-07
  1 2.73972603E-07
  1 2.73972603E-07
  1 2.73972603E-07
  1 2.73972603E-07
  1 2.73972603E-07
  1 2.73972603E-07
  1 2.73972603E-07
  1 2.73972603E-07
  1 2.73972603E-07
  1 2.73972603E-07
  1 2.73972603E-07
  1 2.73972603E-07
  1 2.73972603E-07
  1 2.73972603E-07
  1 2.73972603E-07
  1 2.73972603E-07
  1 2.73972603E-07
  1 2.73972603E-07
  1 2.73972603E-07
  1 2.73972603E-07
  1 2.73972603E-07
  1 2.73972603E-07
  1 2.73972603E-07
  1 2.73972603E-07
  1 2.73972603E-07
  1 2.73972603E-07
  1 2.73972603E-07
  1 2.73972603E-07
  1 2.73972603E-07
  1 2.73972603E-07
  1 2.73972603E-07
  1 2.73972603E-07
  1 2.73972603E-07
  1 2.73972603E-07
  1 2.73972603E-07
  1 2.73972603E-07
  1 2.73972603E-07
  1 2.73972603E-07
  1 2.73972603E-07
  1 2.73972603E-07
  1 2.73972603E-07
  1 2.73972603E-07
  1 2.73972603E-07
  1 2.73972603E-07
  1 2.73972603E-07
  1 2.73972603E-07
  1 2.73972603E-07
  1 2.73972603E-07
  1 2.73972603E-07
  1 2.73972603E-07
  1 2.73972603E-07
  1 2.73972603E-07
  1 2.73972603E-07
  1 2.73972603E-07
  1 2.73972603E-07
  1 2.73972603E-07
  1 2.73972603E-07
  1 2.73972603E-07
  1 2.73972603E-07
  1 2.73972603E-07
  1 2.73972603E-07
  1 2.73972603E-07
  1 2.73972603E-07
  1 2.73972603E-07
  1 2.73972603E-07
  1 2.73972603E-07
  1 2.73972603E-07
  1 2.73972603E-07
  1 2.73972603E-07
  1 2.73972603E-07
  1 2.73972603E-07
  1 2.73972603E-07
  1 2.73972603E-07
  1 2.73972603E-07
  1 2.73972603E-07
  1 2.73972603E-07
  1 2.73972603E-07
  1 2.73972603E-07
  1 2.73972603E-07
  1 2.73972603E-07
  1 2.73972603E-07
  1 2.73972603E-07
  1 2.73972603E-07
  1 2.73972603E-07
  1 2.73972603E-07
  1 2.73972603E-07
  1 2.73972603E-07
  1 2.73972603E-07
  1 2.73972603E-07
  1 2.73972603E-07
  1 2.73972603E-07
  1 2.73972603E-07
  1 2.73972603E-07
  1 2.73972603E-07
  1 2.73972603E-07
  1 2.73972603E-07
  1 2.73972603E-07
  1 2.73972603E-07
  1 2.73972603E-07
  1 2.73972603E-07
  1 2.73972603E-07
  1 2.73972603E-07
  1 2.73972603E-07
  1 2.73972603E-07
  1 2.73972603E-07
  1 2.73972603E-07
  1 2.73972603E-07
  1 2.73972603E-07
  1 2.73972603E-07
  1 2.73972603E-07
  1 2.73972603E-07
  1 2.73972603E-07
  1 2.73972603E-07
  1 2.73972603E-07
  1 2.73972603E-07
  1 2.73972603E-07
  1 2.73972603E-07
  1 2.73972603E-07
  1 2.73972603E-07
  1 2.73972603E-07
  1 2.73972603E-07
  1 2.73972603E-07
  1 2.73972603E-07
  1 2.73972603E-07
  1 2.73972603E-07
  1 2.73972603E-07
  1 2.73972603E-07
  1 2.73972603E-07
  1 2.73972603E-07
  1 2.73972603E-07
  1 2.73972603E-07
  1 2.73972603E-07
  1 2.73972603E-07
  1 2.73972603E-07
  1 2.73972603E-07
  1 2.73972603E-07
  1 2.73972603E-07
  1 2.73972603E-07
  1 2.73972603E-07
  1 2.73972603E-07
  1 2.73972603E-07
  1 2.73972603E-07
  1 2.73972603E-07
  1 2.73972603E-07
  1 2.73972603E-07
  1 2.73972603E-07
  1 2.73972603E-07
  1 2.73972603E-07
  1 2.73972603E-07
  1 2.73972603E-07
  1 2.73972603E-07
  1 2.73972603E-07
  1 2.73972603E-07
  1 2.73972603E-07
  1 2.73972603E-07
  1 2.73972603E-07
  1 2.73972603E-07
  1 2.73972603E-07
  1 2.73972603E-07
  1 2.73972603E-07
  1 2.73972603E-07
  1 2.73972603E-07
  1 2.73972603E-07
  1 2.73972603E-07
  1 2.73972603E-07
  1 2.73972603E-07
  1 2.73972603E-07
  1 2.73972603E-07
  1 2.73972603E-07
  1 2.73972603E-07
  1 2.73972603E-07
  1 2.73972603E-07
  1 2.73972603E-07
  1 2.73972603E-07
  1 2.73972603E-07
  1 2.73972603E-07
  1 2.73972603E-07
  1 2.73972603E-07
  1 2.73972603E-07
  1 2.73972603E-07
  1 2.73972603E-07
  1 2.73972603E-07
  1 2.73972603E-07
  1 2.73972603E-07
  1 2.73972603E-07
  1 2.73972603E-07
  1 2.73972603E-07
  1 2.73972603E-07
  1 2.73972603E-07
  1 2.73972603E-07
  1 2.73972603E-07
  1 2.73972603E-07
  1 2.73972603E-07
  1 2.73972603E-07
  1 2.73972603E-07
  1 2.73972603E-07
  1 2.73972603E-07
  1 2.73972603E-07
  1 2.73972603E-07
  1 2.73972603E-07
  1 2.73972603E-07
  1 2.73972603E-07
  1 2.73972603E-07
  1 2.73972603E-07
  1 2.73972603E-07
  1 2.73972603E-07
  1 2.73972603E-07
  1 2.73972603E-07
  1 2.73972603E-07
  1 2.73972603E-07
  1 2.73972603E-07
  1 2.73972603E-07
  1 2.73972603E-07
  1 2.73972603E-07
  1 2.73972603E-07
  1 2.73972603E-07
  1 2.73972603E-07
  1 2.73972603E-07
  1 2.73972603E-07
  1 2.73972603E-07
  1 2.73972603E-07
  1 2.73972603E-07
  1 2.73972603E-07
  1 2.73972603E-07
  1 2.73972603E-07
  1 2.73972603E-07
  1 2.73972603E-07
  1 2.73972603E-07
  1 2.73972603E-07
  1 2.73972603E-07
  1 2.73972603E-07
  1 2.73972603E-07
  1 2.73972603E-07
  1 2.73972603E-07
  1 2.73972603E-07
  1 2.73972603E-07
  1 2.73972603E-07
  1 2.73972603E-07
  1 2.73972603E-07
  1 2.73972603E-07
  1 2.73972603E-07
  1 2.73972603E-07
  1 2.73972603E-07
  1 2.73972603E-07
  1 2.73972603E-07
  1 2.73972603E-07
  1 2.73972603E-07
  1 2.73972603E-07
  1 2.73972603E-07
  1 2.73972603E-07
  1 2.73972603E-07
  1 2.73972603E-07
  1 2.73972603E-07
  1 2.73972603E-07
  1 2.73972603E-07
  1 2.73972603E-07
  1 2.73972603E-07
  1 2.73972603E-07
  1 2.73972603E-07
  1 2.73972603E-07
  1 2.73972603E-07
  1 2.73972603E-07
  1 2.73972603E-07
  1 2.73972603E-07
  1 2.73972603E-07
  1 2.73972603E-07
  1 2.73972603E-07
  1 2.73972603E-07
  1 2.73972603E-07
  1 2.73972603E-07
  1 2.73972603E-07
  1 2.73972603E-07
  1 2.73972603E-07
  1 2.73972603E-07
  1 2.73972603E-07
  1 2.73972603E-07
  1 2.73972603E-07
  1 2.73972603E-07
  1 2.73972603E-07
  1 2.73972603E-07
  1 2.73972603E-07
  1 2.73972603E-07
  1 2.73972603E-07
  1 2.73972603E-07
  1 2.73972603E-07
  1 2.73972603E-07
  1 2.73972603E-07
  1 2.73972603E-07
  1 2.73972603E-07
  1 2.73972603E-07
  1 2.73972603E-07
  1 2.73972603E-07
  1 2.73972603E-07
  1 2.73972603E-07
  1 2.73972603E-07
  1 2.73972603E-07
  1 2.73972603E-07
  1 2.73972603E-07
  1 2.73972603E-07
  1 2.73972603E-07
  1 2.73972603E-07
  1 2.73972603E-07
  1 2.73972603E-07
  1 2.73972603E-07
  1 2.73972603E-07
  1 2.73972603E-07
  1 2.73972603E-07
  1 2.73972603E-07
  1 2.73972603E-07
  1 2.73972603E-07
  1 2.73972603E-07
  1 2.73972603E-07
  1 2.73972603E-07
  1 2.73972603E-07
  1 2.73972603E-07
  1 2.73972603E-07
  1 2.73972603E-07
  1 2.73972603E-07
  1 2.73972603E-07
  1 2.73972603E-07
  1 2.73972603E-07
  1 2.73972603E-07
  1 2.73972603E-07
  1 2.73972603E-07
  1 2.73972603E-07
  1 2.73972603E-07
  1 2.73972603E-07
  1 2.73972603E-07
  1 2.73972603E-07
  1 2.73972603E-07
  1 2.73972603E-07
  1 2.73972603E-07
  1 2.73972603E-07
  1 2.73972603E-07
  1 2.73972603E-07
  1 2.73972603E-07
  1 2.73972603E-07
  1 2.73972603E-07
  1 2.73972603E-07
  1 2.73972603E-07
  1 2.73972603E-07
  1 2.73972603E-07
  1 2.73972603E-07
  1 2.73972603E-07
  1 2.73972603E-07
  1 2.73972603E-07
  1 2.73972603E-07
  1 2.73972603E-07
  1 2.73972603E-07
  1 2.73972603E-07
  1 2.73972603E-07
  1 2.73972603E-07
  1 2.73972603E-07
  1 2.73972603E-07
  1 2.73972603E-07
  1 2.73972603E-07
  1 2.73972603E-07
  1 2.73972603E-07
  1 2.73972603E-07
  1 2.73972603E-07
  1 2.73972603E-07
  1 2.73972603E-07
  1 2.73972603E-07
  1 2.73972603E-07
  1 2.73972603E-07
  1 2.73972603E-07
  1 2.73972603E-07
  1 2.73972603E-07
  1 2.73972603E-07
  1 2.73972603E-07
  1 2.73972603E-07
  1 2.73972603E-07
  1 2.73972603E-07
  1 2.73972603E-07
  1 2.73972603E-07
  1 2.73972603E-07
  1 2.73972603E-07
  1 2.73972603E-07
  1 2.73972603E-07
  1 2.73972603E-07
  1 2.73972603E-07
  1 2.73972603E-07
  1 2.73972603E-07
  1 2.73972603E-07
  1 2.73972603E-07
  1 2.73972603E-07
  1 2.73972603E-07
  1 2.73972603E-07
  1 2.73972603E-07
  1 2.73972603E-07
  1 2.73972603E-07
  1 2.73972603E-07
  1 2.73972603E-07
  1 2.73972603E-07
  1 2.73972603E-07
  1 2.73972603E-07
  1 2.73972603E-07
  1 2.73972603E-07
  1 2.73972603E-07
  1 2.73972603E-07
  1 2.73972603E-07
  1 2.73972603E-07
  1 2.73972603E-07
  1 2.73972603E-07
  1 2.73972603E-07
  1 2.73972603E-07
  1 2.73972603E-07
  1 2.73972603E-07
  1 2.73972603E-07
  1 2.73972603E-07
  1 2.73972603E-07
  1 2.73972603E-07
  1 2.73972603E-07
  1 2.73972603E-07
  1 2.73972603E-07
  1 2.73972603E-07
  1 2.73972603E-07
  1 2.73972603E-07
  1 2.73972603E-07
  1 2.73972603E-07
  1 2.73972603E-07
  1 2.73972603E-07
  1 2.73972603E-07
  1 2.73972603E-07
  1 2.73972603E-07
  1 2.73972603E-07
  1 2.73972603E-07
  1 2.73972603E-07
  1 2.73972603E-07
  1 2.73972603E-07
  1 2.73972603E-07
  1 2.73972603E-07
  1 2.73972603E-07
  1 2.73972603E-07
  1 2.73972603E-07
  1 2.73972603E-07
  1 2.73972603E-07
  1 2.73972603E-07
  1 2.73972603E-07
  1 2.73972603E-07
  1 2.73972603E-07
  1 2.73972603E-07
  1 2.73972603E-07
  1 2.73972603E-07
  1 2.73972603E-07
  1 2.73972603E-07
  1 2.73972603E-07
  1 2.73972603E-07
  1 2.73972603E-07
  1 2.73972603E-07
  1 2.73972603E-07
  1 2.73972603E-07
  1 2.73972603E-07
  1 2.73972603E-07
  1 2.73972603E-07
  1 2.73972603E-07
  1 2.73972603E-07
  1 2.73972603E-07
  1 2.73972603E-07
  1 2.73972603E-07
  1 2.73972603E-07
  1 2.73972603E-07
  1 2.73972603E-07
  1 2.73972603E-07
  1 2.73972603E-07
  1 2.73972603E-07
  1 2.73972603E-07
  1 2.73972603E-07
  1 2.73972603E-07
  1 2.73972603E-07
  1 2.73972603E-07
  1 2.73972603E-07
  1 2.73972603E-07
  1 2.73972603E-07
  1 2.73972603E-07
  1 2.73972603E-07
  1 2.73972603E-07
  1 2.73972603E-07
  1 2.73972603E-07
  1 2.73972603E-07
  1 2.73972603E-07
  1 2.73972603E-07
  1 2.73972603E-07
  1 2.73972603E-07
  1 2.73972603E-07
  1 2.73972603E-07
  1 2.73972603E-07
  1 2.73972603E-07
  1 2.73972603E-07
  1 2.73972603E-07
  1 2.73972603E-07
  1 2.73972603E-07
  1 2.73972603E-07
  1 2.73972603E-07
  1 2.73972603E-07
  1 2.73972603E-07
  1 2.73972603E-07
  1 2.73972603E-07
  1 2.73972603E-07
  1 2.73972603E-07
  1 2.73972603E-07
  1 2.73972603E-07
  1 2.73972603E-07
  1 2.73972603E-07
  1 2.73972603E-07
  1 2.73972603E-07
  1 2.73972603E-07
  1 2.73972603E-07
  1 2.73972603E-07
  1 2.73972603E-07
  1 2.73972603E-07
  1 2.73972603E-07
  1 2.73972603E-07
  1 2.73972603E-07
  1 2.73972603E-07
  1 2.73972603E-07
  1 2.73972603E-07
  1 2.73972603E-07
  1 2.73972603E-07
  1 2.73972603E-07
  1 2.73972603E-07
  1 2.73972603E-07
  1 2.73972603E-07
  1 2.73972603E-07
  1 2.73972603E-07
  1 2.73972603E-07
  1 2.73972603E-07
  1 2.73972603E-07
  1 2.73972603E-07
  1 2.73972603E-07
  1 2.73972603E-07
  1 2.73972603E-07
  1 2.73972603E-07
  1 2.73972603E-07
  1 2.73972603E-07
  1 2.73972603E-07
  1 2.73972603E-07
  1 2.73972603E-07
  1 2.73972603E-07
  1 2.73972603E-07
  1 2.73972603E-07
  1 2.73972603E-07
  1 2.73972603E-07
  1 2.73972603E-07
  1 2.73972603E-07
  1 2.73972603E-07
  1 2.73972603E-07
  1 2.73972603E-07
  1 2.73972603E-07
  1 2.73972603E-07
  1 2.73972603E-07
  1 2.73972603E-07
  1 2.73972603E-07
  1 2.73972603E-07
  1 2.73972603E-07
  1 2.73972603E-07
  1 2.73972603E-07
  1 2.73972603E-07
  1 2.73972603E-07
  1 2.73972603E-07
  1 2.73972603E-07
  1 2.73972603E-07
  1 2.73972603E-07
  1 2.73972603E-07
  1 2.73972603E-07
  1 2.73972603E-07
  1 2.73972603E-07
  1 2.73972603E-07
  1 2.73972603E-07
  1 2.73972603E-07
  1 2.73972603E-07
  1 2.73972603E-07
  1 2.73972603E-07
  1 2.73972603E-07
  1 2.73972603E-07
  1 2.73972603E-07
  1 2.73972603E-07
  1 2.73972603E-07
  1 2.73972603E-07
  1 2.73972603E-07
  1 2.73972603E-07
  1 2.73972603E-07
  1 2.73972603E-07
  1 2.73972603E-07
  1 2.73972603E-07
  1 2.73972603E-07
  1 2.73972603E-07
  1 2.73972603E-07
  1 2.73972603E-07
  1 2.73972603E-07
  1 2.73972603E-07
  1 2.73972603E-07
  1 2.73972603E-07
  1 2.73972603E-07
  1 2.73972603E-07
  1 2.73972603E-07
  1 2.73972603E-07
  1 2.73972603E-07
  1 2.73972603E-07
  1 2.73972603E-07
  1 2.73972603E-07
  1 2.73972603E-07
  1 2.73972603E-07
  1 2.73972603E-07
  1 2.73972603E-07
  1 2.73972603E-07
  1 2.73972603E-07
  1 2.73972603E-07
  1 2.73972603E-07
  1 2.73972603E-07
  1 2.73972603E-07
  1 2.73972603E-07
  1 2.73972603E-07
  1 2.73972603E-07
  1 2.73972603E-07
  1 2.73972603E-07
  1 2.73972603E-07
  1 2.73972603E-07
  1 2.73972603E-07
  1 2.73972603E-07
  1 2.73972603E-07
  1 2.73972603E-07
  1 2.73972603E-07
  1 2.73972603E-07
  1 2.73972603E-07
  1 2.73972603E-07
  1 2.73972603E-07
  1 2.73972603E-07
  1 2.73972603E-07
  1 2.73972603E-07
  1 2.73972603E-07
  1 2.73972603E-07
  1 2.73972603E-07
  1 2.73972603E-07
  1 2.73972603E-07
  1 2.73972603E-07
  1 2.73972603E-07
  1 2.73972603E-07
  1 2.73972603E-07
  1 2.73972603E-07
  1 2.73972603E-07
  1 2.73972603E-07
  1 2.73972603E-07
  1 2.73972603E-07
  1 2.73972603E-07
  1 2.73972603E-07
  1 2.73972603E-07
  1 2.73972603E-07
  1 2.73972603E-07
  1 2.73972603E-07
  1 2.73972603E-07
  1 2.73972603E-07
  1 2.73972603E-07
  1 2.73972603E-07
  1 2.73972603E-07
  1 2.73972603E-07
  1 2.73972603E-07
  1 2.73972603E-07
  1 2.73972603E-07
  1 2.73972603E-07
  1 2.73972603E-07
  1 2.73972603E-07
  1 2.73972603E-07
  1 2.73972603E-07
  1 2.73972603E-07
  1 2.73972603E-07
  1 2.73972603E-07
  1 2.73972603E-07
  1 2.73972603E-07
  1 2.73972603E-07
  1 2.73972603E-07
  1 2.73972603E-07
  1 2.73972603E-07
  1 2.73972603E-07
  1 2.73972603E-07
  1 2.73972603E-07
  1 2.73972603E-07
  1 2.73972603E-07
  1 2.73972603E-07
  1 2.73972603E-07
  1 2.73972603E-07
  1 2.73972603E-07
  1 2.73972603E-07
  1 2.73972603E-07
  1 2.73972603E-07
  1 2.73972603E-07
  1 2.73972603E-07
  1 2.73972603E-07
  1 2.73972603E-07
  1 2.73972603E-07
  1 2.73972603E-07
  1 2.73972603E-07
  1 2.73972603E-07
  1 2.73972603E-07
  1 2.73972603E-07
  1 2.73972603E-07
  1 2.73972603E-07
  1 2.73972603E-07
  1 2.73972603E-07
  1 2.73972603E-07
  1 2.73972603E-07
  1 2.73972603E-07
  1 2.73972603E-07
  1 2.73972603E-07
  1 2.73972603E-07
  1 2.73972603E-07
  1 2.73972603E-07
  1 2.73972603E-07
  1 2.73972603E-07
  1 2.73972603E-07
  1 2.73972603E-07
  1 2.73972603E-07
  1 2.73972603E-07
  1 2.73972603E-07
  1 2.73972603E-07
  1 2.73972603E-07
  1 2.73972603E-07
  1 2.73972603E-07
  1 2.73972603E-07
  1 2.73972603E-07
  1 2.73972603E-07
  1 2.73972603E-07
  1 2.73972603E-07
  1 2.73972603E-07
  1 2.73972603E-07
  1 2.73972603E-07
  1 2.73972603E-07
  1 2.73972603E-07
  1 2.73972603E-07
  1 2.73972603E-07
  1 2.73972603E-07
  1 2.73972603E-07
  1 2.73972603E-07
  1 2.73972603E-07
  1 2.73972603E-07
  1 2.73972603E-07
  1 2.73972603E-07
  1 2.73972603E-07
  1 2.73972603E-07
  1 2.73972603E-07
  1 2.73972603E-07
  1 2.73972603E-07
  1 2.73972603E-07
  1 2.73972603E-07
  1 2.73972603E-07
  1 2.73972603E-07
  1 2.73972603E-07
  1 2.73972603E-07
  1 2.73972603E-07
  1 2.73972603E-07
  1 2.73972603E-07
  1 2.73972603E-07
  1 2.73972603E-07
  1 2.73972603E-07
  1 2.73972603E-07
  1 2.73972603E-07
  1 2.73972603E-07
  1 2.73972603E-07
  1 2.73972603E-07
  1 2.73972603E-07
  1 2.73972603E-07
  1 2.73972603E-07
  1 2.73972603E-07
  1 2.73972603E-07
  1 2.73972603E-07
  1 2.73972603E-07
  1 2.73972603E-07
  1 2.73972603E-07
  1 2.73972603E-07
  1 2.73972603E-07
  1 2.73972603E-07
  1 2.73972603E-07
  1 2.73972603E-07
  1 2.73972603E-07
  1 2.73972603E-07
  1 2.73972603E-07
  1 2.73972603E-07
  1 2.73972603E-07
  1 2.73972603E-07
  1 2.73972603E-07
  1 2.73972603E-07
  1 2.73972603E-07
  1 2.73972603E-07
  1 2.73972603E-07
  1 2.73972603E-07
  1 2.73972603E-07
  1 2.73972603E-07
  1 2.73972603E-07
  1 2.73972603E-07
  1 2.73972603E-07
  1 2.73972603E-07
  1 2.73972603E-07
  1 2.73972603E-07
  1 2.73972603E-07
  1 2.73972603E-07
  1 2.73972603E-07
  1 2.73972603E-07
  1 2.73972603E-07
  1 2.73972603E-07
  1 2.73972603E-07
  1 2.73972603E-07
  1 2.73972603E-07
  1 2.73972603E-07
  1 2.73972603E-07
  1 2.73972603E-07
  1 2.73972603E-07
  1 2.73972603E-07
  1 2.73972603E-07
  1 2.73972603E-07
  1 2.73972603E-07
  1 2.73972603E-07
  1 2.73972603E-07
  1 2.73972603E-07
  1 2.73972603E-07
  1 2.73972603E-07
  1 2.73972603E-07
  1 2.73972603E-07
  1 2.73972603E-07
  1 2.73972603E-07
  1 2.73972603E-07
  1 2.73972603E-07
  1 2.73972603E-07
  1 2.73972603E-07
  1 2.73972603E-07
  1 2.73972603E-07
  1 2.73972603E-07
  1 2.73972603E-07
  1 2.73972603E-07
  1 2.73972603E-07
  1 2.73972603E-07
  1 2.73972603E-07
  1 2.73972603E-07
  1 2.73972603E-07
  1 2.73972603E-07
  1 2.73972603E-07
  1 2.73972603E-07
  1 2.73972603E-07
  1 2.73972603E-07
  1 2.73972603E-07
  1 2.73972603E-07
  1 2.73972603E-07
  1 2.73972603E-07
  1 2.73972603E-07
  1 2.73972603E-07
  1 2.73972603E-07
  1 2.73972603E-07
  1 2.73972603E-07
  1 2.73972603E-07
  1 2.73972603E-07
  1 2.73972603E-07
  1 2.73972603E-07
  1 2.73972603E-07
  1 2.73972603E-07
  1 2.73972603E-07
  1 2.73972603E-07
  1 2.73972603E-07
  1 2.73972603E-07
  1 2.73972603E-07
  1 2.73972603E-07
  1 2.73972603E-07
  1 2.73972603E-07
  1 2.73972603E-07
  1 2.73972603E-07
  1 2.73972603E-07
  1 2.73972603E-07
  1 2.73972603E-07
  1 2.73972603E-07
  1 2.73972603E-07
  1 2.73972603E-07
  1 2.73972603E-07
  1 2.73972603E-07
  1 2.73972603E-07
  1 2.73972603E-07
  1 2.73972603E-07
  1 2.73972603E-07
  1 2.73972603E-07
  1 2.73972603E-07
  1 2.73972603E-07
  1 2.73972603E-07
  1 2.73972603E-07
  1 2.73972603E-07
  1 2.73972603E-07
  1 2.73972603E-07
  1 2.73972603E-07
  1 2.73972603E-07
  1 2.73972603E-07
  1 2.73972603E-07
  1 2.73972603E-07
  1 2.73972603E-07
  1 2.73972603E-07
  1 2.73972603E-07
  1 2.73972603E-07
  1 2.73972603E-07
  1 2.73972603E-07
  1 2.73972603E-07
  1 2.73972603E-07
  1 2.73972603E-07
  1 2.73972603E-07
  1 2.73972603E-07
  1 2.73972603E-07
  1 2.73972603E-07
  1 2.73972603E-07
  1 2.73972603E-07
  1 2.73972603E-07
  1 2.73972603E-07
  1 2.73972603E-07
  1 2.73972603E-07
  1 2.73972603E-07
  1 2.73972603E-07
  1 2.73972603E-07
  1 2.73972603E-07
  1 2.73972603E-07
  1 2.73972603E-07
  1 2.73972603E-07
  1 2.73972603E-07
  1 2.73972603E-07
  1 2.73972603E-07
  1 2.73972603E-07
  1 2.73972603E-07
  1 2.73972603E-07
  1 2.73972603E-07
  1 2.73972603E-07
  1 2.73972603E-07
  1 2.73972603E-07
  1 2.73972603E-07
  1 2.73972603E-07
  1 2.73972603E-07
  1 2.73972603E-07
  1 2.73972603E-07
  1 2.73972603E-07
  1 2.73972603E-07
  1 2.73972603E-07
  1 2.73972603E-07
  1 2.73972603E-07
  1 2.73972603E-07
  1 2.73972603E-07
  1 2.73972603E-07
  1 2.73972603E-07
  1 2.73972603E-07
  1 2.73972603E-07
  1 2.73972603E-07
  1 2.73972603E-07
  1 2.73972603E-07
  1 2.73972603E-07
  1 2.73972603E-07
  1 2.73972603E-07
  1 2.73972603E-07
  1 2.73972603E-07
  1 2.73972603E-07
  1 2.73972603E-07
  1 2.73972603E-07
  1 2.73972603E-07
  1 2.73972603E-07
  1 2.73972603E-07
  1 2.73972603E-07
  1 2.73972603E-07
  1 2.73972603E-07
  1 2.73972603E-07
  1 2.73972603E-07
  1 2.73972603E-07
  1 2.73972603E-07
  1 2.73972603E-07
  1 2.73972603E-07
  1 2.73972603E-07
  1 2.73972603E-07
  1 2.73972603E-07
  1 2.73972603E-07
  1 2.73972603E-07
  1 2.73972603E-07
  1 2.73972603E-07
  1 2.73972603E-07
  1 2.73972603E-07
  1 2.73972603E-07
  1 2.73972603E-07
  1 2.73972603E-07
  1 2.73972603E-07
  1 2.73972603E-07
  1 2.73972603E-07
  1 2.73972603E-07
  1 2.73972603E-07
  1 2.73972603E-07
  1 2.73972603E-07
  1 2.73972603E-07
  1 2.73972603E-07
  1 2.73972603E-07
  1 2.73972603E-07
  1 2.73972603E-07
  1 2.73972603E-07
  1 2.73972603E-07
  1 2.73972603E-07
  1 2.73972603E-07
  1 2.73972603E-07
  1 2.73972603E-07
  1 2.73972603E-07
  1 2.73972603E-07
  1 2.73972603E-07
  1 2.73972603E-07
  1 2.73972603E-07
  1 2.73972603E-07
  1 2.73972603E-07
  1 2.73972603E-07
  1 2.73972603E-07
  1 2.73972603E-07
  1 2.73972603E-07
  1 2.73972603E-07
  1 2.73972603E-07
  1 2.73972603E-07
  1 2.73972603E-07
  1 2.73972603E-07
  1 2.73972603E-07
  1 2.73972603E-07
  1 2.73972603E-07
  1 2.73972603E-07
  1 2.73972603E-07
  1 2.73972603E-07
  1 2.73972603E-07
  1 2.73972603E-07
  1 2.73972603E-07
  1 2.73972603E-07
  1 2.73972603E-07
  1 2.73972603E-07
  1 2.73972603E-07
  1 2.73972603E-07
  1 2.73972603E-07
  1 2.73972603E-07
  1 2.73972603E-07
  1 2.73972603E-07
  1 2.73972603E-07
  1 2.73972603E-07
  1 2.73972603E-07
  1 2.73972603E-07
  1 2.73972603E-07
  1 2.73972603E-07
  1 2.73972603E-07
  1 2.73972603E-07
  1 2.73972603E-07
  1 2.73972603E-07
  1 2.73972603E-07
  1 2.73972603E-07
  1 2.73972603E-07
  1 2.73972603E-07
  1 2.73972603E-07
  1 2.73972603E-07
  1 2.73972603E-07
  1 2.73972603E-07
  1 2.73972603E-07
  1 2.73972603E-07
  1 2.73972603E-07
  1 2.73972603E-07
  1 2.73972603E-07
  1 2.73972603E-07
  1 2.73972603E-07
  1 2.73972603E-07
  1 2.73972603E-07
  1 2.73972603E-07
  1 2.73972603E-07
  1 2.73972603E-07
  1 2.73972603E-07
  1 2.73972603E-07
  1 2.73972603E-07
  1 2.73972603E-07
  1 2.73972603E-07
  1 2.73972603E-07
  1 2.73972603E-07
  1 2.73972603E-07
  1 2.73972603E-07
  1 2.73972603E-07
  1 2.73972603E-07
  1 2.73972603E-07
  1 2.73972603E-07
  1 2.73972603E-07
  1 2.73972603E-07
  1 2.73972603E-07
  1 2.73972603E-07
  1 2.73972603E-07
  1 2.73972603E-07
  1 2.73972603E-07
  1 2.73972603E-07
  1 2.73972603E-07
  1 2.73972603E-07
  1 2.73972603E-07
  1 2.73972603E-07
  1 2.73972603E-07
  1 2.73972603E-07
  1 2.73972603E-07
  1 2.73972603E-07
  1 2.73972603E-07
  1 2.73972603E-07
  1 2.73972603E-07
  1 2.73972603E-07
  1 2.73972603E-07
  1 2.73972603E-07
  1 2.73972603E-07
  1 2.73972603E-07
  1 2.73972603E-07
  1 2.73972603E-07
  1 2.73972603E-07
  1 2.73972603E-07
  1 2.73972603E-07
  1 2.73972603E-07
  1 2.73972603E-07
  1 2.73972603E-07
  1 2.73972603E-07
  1 2.73972603E-07
  1 2.73972603E-07
  1 2.73972603E-07
  1 2.73972603E-07
  1 2.73972603E-07
  1 2.73972603E-07
  1 2.73972603E-07
  1 2.73972603E-07
  1 2.73972603E-07
  1 2.73972603E-07
  1 2.73972603E-07
  1 2.73972603E-07
  1 2.73972603E-07
  1 2.73972603E-07
  1 2.73972603E-07
  1 2.73972603E-07
  1 2.73972603E-07
  1 2.73972603E-07
  1 2.73972603E-07
  1 2.73972603E-07
  1 2.73972603E-07
  1 2.73972603E-07
  1 2.73972603E-07
  1 2.73972603E-07
  1 2.73972603E-07
  1 2.73972603E-07
  1 2.73972603E-07
  1 2.73972603E-07
  1 2.73972603E-07
  1 2.73972603E-07
  1 2.73972603E-07
  1 2.73972603E-07
  1 2.73972603E-07
  1 2.73972603E-07
  1 2.73972603E-07
  1 2.73972603E-07
  1 2.73972603E-07
  1 2.73972603E-07
  1 2.73972603E-07
  1 2.73972603E-07
  1 2.73972603E-07
  1 2.73972603E-07
  1 2.73972603E-07
  1 2.73972603E-07
  1 2.73972603E-07
  1 2.73972603E-07
  1 2.73972603E-07
  1 2.73972603E-07
  1 2.73972603E-07
  1 2.73972603E-07
  1 2.73972603E-07
  1 2.73972603E-07
  1 2.73972603E-07
  1 2.73972603E-07
  1 2.73972603E-07
  1 2.73972603E-07
  1 2.73972603E-07
  1 2.73972603E-07
  1 2.73972603E-07
  1 2.73972603E-07
  1 2.73972603E-07
  1 2.73972603E-07
  1 2.73972603E-07
  1 2.73972603E-07
  1 2.73972603E-07
  1 2.73972603E-07
  1 2.73972603E-07
  1 2.73972603E-07
  1 2.73972603E-07
  1 2.73972603E-07
  1 2.73972603E-07
  1 2.73972603E-07
  1 2.73972603E-07
  1 2.73972603E-07
  1 2.73972603E-07
  1 2.73972603E-07
  1 2.73972603E-07
  1 2.73972603E-07
  1 2.73972603E-07
  1 2.73972603E-07
  1 2.73972603E-07
  1 2.73972603E-07
  1 2.73972603E-07
  1 2.73972603E-07
  1 2.73972603E-07
  1 2.73972603E-07
  1 2.73972603E-07
  1 2.73972603E-07
  1 2.73972603E-07
  1 2.73972603E-07
  1 2.73972603E-07
  1 2.73972603E-07
  1 2.73972603E-07
  1 2.73972603E-07
  1 2.73972603E-07
  1 2.73972603E-07
  1 2.73972603E-07
  1 2.73972603E-07
  1 2.73972603E-07
  1 2.73972603E-07
  1 2.73972603E-07
  1 2.73972603E-07
  1 2.73972603E-07
  1 2.73972603E-07
  1 2.73972603E-07
  1 2.73972603E-07
  1 2.73972603E-07
  1 2.73972603E-07
  1 2.73972603E-07
  1 2.73972603E-07
  1 2.73972603E-07
  1 2.73972603E-07
  1 2.73972603E-07
  1 2.73972603E-07
  1 2.73972603E-07
  1 2.73972603E-07
  1 2.73972603E-07
  1 2.73972603E-07
  1 2.73972603E-07
  1 2.73972603E-07
  1 2.73972603E-07
  1 2.73972603E-07
  1 2.73972603E-07
  1 2.73972603E-07
  1 2.73972603E-07
  1 2.73972603E-07
  1 2.73972603E-07
  1 2.73972603E-07
  1 2.73972603E-07
  1 2.73972603E-07
  1 2.73972603E-07
  1 2.73972603E-07
  1 2.73972603E-07
  1 2.73972603E-07
  1 2.73972603E-07
  1 2.73972603E-07
  1 2.73972603E-07
  1 2.73972603E-07
  1 2.73972603E-07
  1 2.73972603E-07
  1 2.73972603E-07
  1 2.73972603E-07
  1 2.73972603E-07
  1 2.73972603E-07
  1 2.73972603E-07
  1 2.73972603E-07
  1 2.73972603E-07
  1 2.73972603E-07
  1 2.73972603E-07
  1 2.73972603E-07
  1 2.73972603E-07
  1 2.73972603E-07
  1 2.73972603E-07
  1 2.73972603E-07
  1 2.73972603E-07
  1 2.73972603E-07
  1 2.73972603E-07
  1 2.73972603E-07
  1 2.73972603E-07
  1 2.73972603E-07
  1 2.73972603E-07
  1 2.73972603E-07
  1 2.73972603E-07
  1 2.73972603E-07
  1 2.73972603E-07
  1 2.73972603E-07
  1 2.73972603E-07
  1 2.73972603E-07
  1 2.73972603E-07
  1 2.73972603E-07
  1 2.73972603E-07
  1 2.73972603E-07
  1 2.73972603E-07
  1 2.73972603E-07
  1 2.73972603E-07
  1 2.73972603E-07
  1 2.73972603E-07
  1 2.73972603E-07
  1 2.73972603E-07
  1 2.73972603E-07
  1 2.73972603E-07
  1 2.73972603E-07
  1 2.73972603E-07
  1 2.73972603E-07
  1 2.73972603E-07
  1 2.73972603E-07
  1 2.73972603E-07
  1 2.73972603E-07
  1 2.73972603E-07
  1 2.73972603E-07
  1 2.73972603E-07
  1 2.73972603E-07
  1 2.73972603E-07
  1 2.73972603E-07
  1 2.73972603E-07
  1 2.73972603E-07
  1 2.73972603E-07
  1 2.73972603E-07
  1 2.73972603E-07
  1 2.73972603E-07
  1 2.73972603E-07
  1 2.73972603E-07
  1 2.73972603E-07
  1 2.73972603E-07
  1 2.73972603E-07
  1 2.73972603E-07
  1 2.73972603E-07
  1 2.73972603E-07
  1 2.73972603E-07
  1 2.73972603E-07
  1 2.73972603E-07
  1 2.73972603E-07
  1 2.73972603E-07
  1 2.73972603E-07
  1 2.73972603E-07
  1 2.73972603E-07
  1 2.73972603E-07
  1 2.73972603E-07
  1 2.73972603E-07
  1 2.73972603E-07
  1 2.73972603E-07
  1 2.73972603E-07
  1 2.73972603E-07
  1 2.73972603E-07
  1 2.73972603E-07
  1 2.73972603E-07
  1 2.73972603E-07
  1 2.73972603E-07
  1 2.73972603E-07
  1 2.73972603E-07
  1 2.73972603E-07
  1 2.73972603E-07
  1 2.73972603E-07
  1 2.73972603E-07
  1 2.73972603E-07
  1 2.73972603E-07
  1 2.73972603E-07
  1 2.73972603E-07
  1 2.73972603E-07
  1 2.73972603E-07
  1 2.73972603E-07
  1 2.73972603E-07
  1 2.73972603E-07
  1 2.73972603E-07
  1 2.73972603E-07
  1 2.73972603E-07
  1 2.73972603E-07
  1 2.73972603E-07
  1 2.73972603E-07
  1 2.73972603E-07
  1 2.73972603E-07
  1 2.73972603E-07
  1 2.73972603E-07
  1 2.73972603E-07
  1 2.73972603E-07
  1 2.73972603E-07
  1 2.73972603E-07
  1 2.73972603E-07
  1 2.73972603E-07
  1 2.73972603E-07
  1 2.73972603E-07
  1 2.73972603E-07
  1 2.73972603E-07
  1 2.73972603E-07
  1 2.73972603E-07
  1 2.73972603E-07
  1 2.73972603E-07
  1 2.73972603E-07
  1 2.73972603E-07
  1 2.73972603E-07
  1 2.73972603E-07