# File generated by Flopy version 3.8.2 on 05/14/2025 at 00:18:23.
BEGIN options
  BUDGET  FILEOUT  steadymodel.bud
  HEAD  FILEOUT  steadymodel.hds
END options

BEGIN period  1
  SAVE  HEAD  LAST
  SAVE  BUDGET  ALL
END period  1

