# File generated by Flopy version 3.8.2 on 04/22/2025 at 13:44:53.
BEGIN options
END options

BEGIN dimensions
  MAXBOUND  762
END dimensions

BEGIN period  1
  2509 2.36628876E+01
  3665 2.60028876E+01
  4821 2.89278876E+01
  5977 3.24378876E+01
  7133 3.64578876E+01
  8289 4.32528876E+01
  2636 2.33472388E+01
  3792 2.56872388E+01
  4948 2.86272388E+01
  6104 3.21672388E+01
  7260 3.61872388E+01
  8416 4.29372388E+01
  2518 2.37432564E+01
  3674 2.60532564E+01
  4830 2.89782564E+01
  5986 3.25182564E+01
  7142 3.65382564E+01
  8298 4.32882564E+01
  2514 2.37670987E+01
  3670 2.61070987E+01
  4826 2.90320987E+01
  5982 3.25420987E+01
  7138 3.65470987E+01
  8294 4.32970987E+01
  2631 2.34337653E+01
  3787 2.57737653E+01
  4943 2.87137653E+01
  6099 3.22537653E+01
  7255 3.62587653E+01
  8411 4.29637653E+01
  2511 2.37670987E+01
  3667 2.61070987E+01
  4823 2.90470987E+01
  5979 3.25870987E+01
  7135 3.65920987E+01
  8291 4.32970987E+01
  2628 2.34487653E+01
  3784 2.58187653E+01
  4940 2.87587653E+01
  6096 3.22687653E+01
  7252 3.62587653E+01
  8408 4.29637653E+01
  2520 2.38270987E+01
  3676 2.61670987E+01
  4832 2.90920987E+01
  5988 3.26020987E+01
  7144 3.65920987E+01
  8300 4.32970987E+01
  2634 2.35087653E+01
  3790 2.58787653E+01
  4946 2.88187653E+01
  6102 3.23287653E+01
  7258 3.63037653E+01
  8414 4.29637653E+01
  2513 2.38420987E+01
  3669 2.62120987E+01
  4825 2.91520987E+01
  5981 3.26620987E+01
  7137 3.66370987E+01
  8293 4.32970987E+01
  2632 2.35087653E+01
  3788 2.58787653E+01
  4944 2.88337653E+01
  6100 3.23737653E+01
  7256 3.63487653E+01
  8412 4.29637653E+01
  2637 2.38420987E+01
  3793 2.62120987E+01
  4949 2.91670987E+01
  6105 3.27070987E+01
  7261 3.66820987E+01
  8417 4.32970987E+01
  2522 2.35687653E+01
  3678 2.59387653E+01
  4834 2.88787653E+01
  5990 3.23887653E+01
  7146 3.63487653E+01
  8302 4.29637653E+01
  2638 2.39020987E+01
  3794 2.62720987E+01
  4950 2.92120987E+01
  6106 3.27220987E+01
  7262 3.66820987E+01
  8418 4.32970987E+01
  2537 2.35687653E+01
  3693 2.59387653E+01
  4849 2.88937653E+01
  6005 3.24337653E+01
  7161 3.63937653E+01
  8317 4.29637653E+01
  2646 2.39170987E+01
  3802 2.63170987E+01
  4958 2.92720987E+01
  6114 3.27820987E+01
  7270 3.67270987E+01
  8426 4.32970987E+01
  2527 2.35837653E+01
  3683 2.59837653E+01
  4839 2.89387653E+01
  5995 3.24487653E+01
  7151 3.63937653E+01
  8307 4.29637653E+01
  2647 2.39620987E+01
  3803 2.63320987E+01
  4959 2.92870987E+01
  6115 3.28270987E+01
  7271 3.67720987E+01
  8427 4.32970987E+01
  2529 2.36437653E+01
  3685 2.60437653E+01
  4841 2.89987653E+01
  5997 3.25087653E+01
  7153 3.64387653E+01
  8309 4.29637653E+01
  2640 2.39770987E+01
  3796 2.63770987E+01
  4952 2.93320987E+01
  6108 3.28420987E+01
  7264 3.67720987E+01
  8420 4.32970987E+01
  2524 2.36437653E+01
  3680 2.60437653E+01
  4836 2.90137653E+01
  5992 3.25537653E+01
  7148 3.64837653E+01
  8304 4.29637653E+01
  2641 2.39920987E+01
  3797 2.64220987E+01
  4953 2.93920987E+01
  6109 3.29020987E+01
  7265 3.68170987E+01
  8421 4.32970987E+01
  2536 2.36587653E+01
  3692 2.60887653E+01
  4848 2.90587653E+01
  6004 3.25687653E+01
  7160 3.64837653E+01
  8316 4.29637653E+01
  2643 2.40370987E+01
  3799 2.64370987E+01
  4955 2.94070987E+01
  6111 3.29470987E+01
  7267 3.68620987E+01
  8423 4.32970987E+01
  2525 2.37187653E+01
  3681 2.61487653E+01
  4837 2.91187653E+01
  5993 3.26287653E+01
  7149 3.65287653E+01
  8305 4.29637653E+01
  2644 2.40520987E+01
  3800 2.64820987E+01
  4956 2.94520987E+01
  6112 3.29620987E+01
  7268 3.68620987E+01
  8424 4.32970987E+01
  2534 2.37187653E+01
  3690 2.61487653E+01
  4846 2.91337653E+01
  6002 3.26737653E+01
  7158 3.65737653E+01
  8314 4.29637653E+01
  1386 2.23870987E+01
  2542 2.41120987E+01
  3698 2.65420987E+01
  4854 2.95120987E+01
  6010 3.30220987E+01
  7166 3.69070987E+01
  8322 4.32970987E+01
  1494 2.20537653E+01
  2650 2.37787653E+01
  3806 2.62087653E+01
  4962 2.91787653E+01
  6118 3.26887653E+01
  7274 3.65737653E+01
  8430 4.29637653E+01
  1377 2.24020987E+01
  2533 2.41120987E+01
  3689 2.65420987E+01
  4845 2.95270987E+01
  6001 3.30670987E+01
  7157 3.69520987E+01
  8313 4.32970987E+01
  1492 2.20687653E+01
  2648 2.37937653E+01
  3804 2.62537653E+01
  4960 2.92387653E+01
  6116 3.27487653E+01
  7272 3.66187653E+01
  8428 4.29637653E+01
  1496 2.24020987E+01
  2652 2.41270987E+01
  3808 2.65870987E+01
  4964 2.95720987E+01
  6120 3.30820987E+01
  7276 3.69520987E+01
  8432 4.32970987E+01
  1396 2.21287653E+01
  2552 2.38387653E+01
  3708 2.62687653E+01
  4864 2.92537653E+01
  6020 3.27937653E+01
  7176 3.66637653E+01
  8332 4.29637653E+01
  1497 2.24620987E+01
  2653 2.41870987E+01
  3809 2.66470987E+01
  4965 2.96320987E+01
  6121 3.31420987E+01
  7277 3.69970987E+01
  8433 4.32970987E+01
  1463 2.21287653E+01
  2619 2.38537653E+01
  3775 2.63137653E+01
  4931 2.92987653E+01
  6087 3.28087653E+01
  7243 3.66637653E+01
  8399 4.29637653E+01
  1499 2.24770987E+01
  2655 2.41870987E+01
  3811 2.66470987E+01
  4967 2.96470987E+01
  6123 3.31870987E+01
  7279 3.70420987E+01
  8435 4.32970987E+01
  1401 2.21437653E+01
  2557 2.38687653E+01
  3713 2.63587653E+01
  4869 2.93587653E+01
  6025 3.28687653E+01
  7181 3.67087653E+01
  8337 4.29637653E+01
  1500 2.25220987E+01
  2656 2.42470987E+01
  3812 2.67070987E+01
  4968 2.96920987E+01
  6124 3.32020987E+01
  7280 3.70420987E+01
  8436 4.32970987E+01
  1426 2.21887653E+01
  2582 2.39287653E+01
  3738 2.64187653E+01
  4894 2.94187653E+01
  6050 3.29287653E+01
  7206 3.67537653E+01
  8362 4.29637653E+01
  1433 2.25370987E+01
  2589 2.42620987E+01
  3745 2.67520987E+01
  4901 2.97520987E+01
  6057 3.32620987E+01
  7213 3.70870987E+01
  8369 4.32970987E+01
  1512 2.22037653E+01
  2668 2.39287653E+01
  3824 2.64187653E+01
  4980 2.94337653E+01
  6136 3.29737653E+01
  7292 3.67987653E+01
  8448 4.29637653E+01
  1431 2.25970987E+01
  2587 2.43220987E+01
  3743 2.68120987E+01
  4899 2.98120987E+01
  6055 3.33220987E+01
  7211 3.71320987E+01
  8367 4.32970987E+01
  1510 2.22637653E+01
  2666 2.39887653E+01
  3822 2.64787653E+01
  4978 2.94787653E+01
  6134 3.29887653E+01
  7290 3.67987653E+01
  8446 4.29637653E+01
  1502 2.25970987E+01
  2658 2.43220987E+01
  3814 2.68120987E+01
  4970 2.98270987E+01
  6126 3.33670987E+01
  7282 3.71770987E+01
  8438 4.32970987E+01
  1425 2.22637653E+01
  2581 2.40037653E+01
  3737 2.65237653E+01
  4893 2.95387653E+01
  6049 3.30487653E+01
  7205 3.68437653E+01
  8361 4.29637653E+01
  1503 2.26570987E+01
  2659 2.43820987E+01
  3815 2.68720987E+01
  4971 2.98870987E+01
  6127 3.34270987E+01
  7283 3.72220987E+01
  8439 4.32970987E+01
  1440 2.23237653E+01
  2596 2.40637653E+01
  3752 2.65837653E+01
  4908 2.95987653E+01
  6064 3.31087653E+01
  7220 3.68887653E+01
  8376 4.29637653E+01
  1505 2.26720987E+01
  2661 2.43970987E+01
  3817 2.69170987E+01
  4973 2.99320987E+01
  6129 3.34420987E+01
  7285 3.72220987E+01
  8441 4.32970987E+01
  1428 2.23387653E+01
  2584 2.40637653E+01
  3740 2.65837653E+01
  4896 2.96137653E+01
  6052 3.31537653E+01
  7208 3.69337653E+01
  8364 4.29637653E+01
  1506 2.27170987E+01
  2662 2.44570987E+01
  3818 2.69770987E+01
  4974 2.99920987E+01
  6130 3.35020987E+01
  7286 3.72670987E+01
  8442 4.32970987E+01
  1435 2.23837653E+01
  2591 2.41237653E+01
  3747 2.66437653E+01
  4903 2.96737653E+01
  6059 3.32137653E+01
  7215 3.69787653E+01
  8371 4.29637653E+01
  1508 2.27320987E+01
  2664 2.44720987E+01
  3820 2.70220987E+01
  4976 3.00520987E+01
  6132 3.35620987E+01
  7288 3.73120987E+01
  8444 4.32970987E+01
  1429 2.23987653E+01
  2585 2.41387653E+01
  3741 2.66887653E+01
  4897 2.97187653E+01
  6053 3.32287653E+01
  7209 3.69787653E+01
  8365 4.29637653E+01
  1509 2.27920987E+01
  2665 2.45170987E+01
  3821 2.70370987E+01
  4977 3.00670987E+01
  6133 3.36070987E+01
  7289 3.73570987E+01
  8445 4.32970987E+01
  1438 2.24587653E+01
  2594 2.41987653E+01
  3750 2.67487653E+01
  4906 2.97787653E+01
  6062 3.32887653E+01
  7218 3.70237653E+01
  8374 4.29637653E+01
  1459 2.27920987E+01
  2615 2.45320987E+01
  3771 2.70820987E+01
  4927 3.01270987E+01
  6083 3.36670987E+01
  7239 3.74020987E+01
  8395 4.32970987E+01
  1515 2.24737653E+01
  2671 2.42137653E+01
  3827 2.67937653E+01
  4983 2.98387653E+01
  6139 3.33487653E+01
  7295 3.70687653E+01
  8451 4.29637653E+01
  1442 2.28520987E+01
  2598 2.45920987E+01
  3754 2.71420987E+01
  4910 3.01720987E+01
  6066 3.36820987E+01
  7222 3.74020987E+01
  8378 4.32970987E+01
  1513 2.25187653E+01
  2669 2.42587653E+01
  3825 2.68087653E+01
  4981 2.98537653E+01
  6137 3.33937653E+01
  7293 3.71137653E+01
  8449 4.29637653E+01
  1523 2.28670987E+01
  2679 2.46070987E+01
  3835 2.71870987E+01
  4991 3.02320987E+01
  6147 3.37420987E+01
  7303 3.74470987E+01
  8459 4.32970987E+01
  1449 2.25337653E+01
  2605 2.42737653E+01
  3761 2.68537653E+01
  4917 2.99137653E+01
  6073 3.34537653E+01
  7229 3.71587653E+01
  8385 4.29637653E+01
  1524 2.29120987E+01
  2680 2.46670987E+01
  3836 2.72470987E+01
  4992 3.02920987E+01
  6148 3.38020987E+01
  7304 3.74920987E+01
  8460 4.32970987E+01
  1451 2.25937653E+01
  2607 2.43337653E+01
  3763 2.69137653E+01
  4919 2.99587653E+01
  6075 3.34687653E+01
  7231 3.71587653E+01
  8387 4.29637653E+01
  1517 2.29270987E+01
  2673 2.46670987E+01
  3829 2.72470987E+01
  4985 3.03070987E+01
  6141 3.38470987E+01
  7297 3.75370987E+01
  8453 4.32970987E+01
  1444 2.25937653E+01
  2600 2.43487653E+01
  3756 2.69587653E+01
  4912 3.00187653E+01
  6068 3.35287653E+01
  7224 3.72037653E+01
  8380 4.29637653E+01
  1518 2.29870987E+01
  2674 2.47270987E+01
  3830 2.73070987E+01
  4986 3.03520987E+01
  6142 3.38620987E+01
  7298 3.75370987E+01
  8454 4.32970987E+01
  1458 2.26537653E+01
  2614 2.44087653E+01
  3770 2.70187653E+01
  4926 3.00787653E+01
  6082 3.35887653E+01
  7238 3.72487653E+01
  8394 4.29637653E+01
  1520 2.29870987E+01
  2676 2.47420987E+01
  3832 2.73520987E+01
  4988 3.04120987E+01
  6144 3.39220987E+01
  7300 3.75820987E+01
  8456 4.32970987E+01
  1446 2.26537653E+01
  2602 2.44087653E+01
  3758 2.70187653E+01
  4914 3.00937653E+01
  6070 3.36337653E+01
  7226 3.72937653E+01
  8382 4.29637653E+01
  1521 2.30470987E+01
  2677 2.48020987E+01
  3833 2.74120987E+01
  4989 3.04720987E+01
  6145 3.39820987E+01
  7301 3.76270987E+01
  8457 4.32970987E+01
  1453 2.27137653E+01
  2609 2.44687653E+01
  3765 2.70787653E+01
  4921 3.01387653E+01
  6077 3.36487653E+01
  7233 3.72937653E+01
  8389 4.29637653E+01
  1447 2.30620987E+01
  2603 2.48020987E+01
  3759 2.74120987E+01
  4915 3.04870987E+01
  6071 3.40270987E+01
  7227 3.76720987E+01
  8383 4.32970987E+01
  1527 2.27000426E+01
  2683 2.44550426E+01
  3839 2.70950426E+01
  4995 3.01700426E+01
  6151 3.36800426E+01
  7307 3.73100426E+01
  8463 4.29350426E+01
  1456 2.30333759E+01
  2612 2.47883759E+01
  3768 2.74283759E+01
  4924 3.05033759E+01
  6080 3.40133759E+01
  7236 3.76433759E+01
  8392 4.32683759E+01
  1525 2.26846814E+01
  2681 2.44396814E+01
  3837 2.70496814E+01
  4993 3.01246814E+01
  6149 3.36646814E+01
  7305 3.72946814E+01
  8461 4.28746814E+01
  2364 1.56486210E+00
  3520 4.23486210E+00
  4676 7.33986210E+00
  5832 1.08798621E+01
  6988 1.47048621E+01
  8144 2.08698621E+01
  2360 1.41259663E+00
  3516 4.08259663E+00
  4672 7.18759663E+00
  5828 1.07275966E+01
  6984 1.45375966E+01
  8140 2.06575966E+01
  2355 4.85080177E-01
  3511 3.18508018E+00
  4667 6.30508018E+00
  5823 9.84508018E+00
  6979 1.36400802E+01
  8135 1.97150802E+01
  2349 3.32814706E-01
  3505 3.03281471E+00
  4661 6.13781471E+00
  5817 9.64781471E+00
  6973 1.34278147E+01
  8129 1.95028147E+01
  2352 -5.94701744E-01
  3508 2.13529826E+00
  4664 5.25529826E+00
  5820 8.76529826E+00
  6976 1.25302983E+01
  8132 1.85602983E+01
  2351 -7.91967215E-01
  3507 1.96803278E+00
  4663 5.10303278E+00
  5819 8.61303278E+00
  6975 1.23630328E+01
  8131 1.83480328E+01
  2354 -1.67448367E+00
  3510 1.08551633E+00
  4666 4.22051633E+00
  5822 7.73051633E+00
  6978 1.14655163E+01
  8134 1.74055163E+01
  2383 -1.86321615E+00
  3539 8.96783854E-01
  4695 4.04678385E+00
  5851 7.58678385E+00
  7007 1.13217839E+01
  8163 1.72167839E+01
  2373 -2.64880640E+00
  3529 1.41193603E-01
  4685 3.29119360E+00
  5841 6.80119360E+00
  6997 1.05061936E+01
  8153 1.63561936E+01
  2367 -2.73931257E+00
  3523 5.06874321E-02
  4679 3.21568743E+00
  5835 6.75568743E+00
  6991 1.04606874E+01
  8147 1.62656874E+01
  2374 -3.47744609E+00
  3530 -6.57446093E-01
  4686 2.52255391E+00
  5842 6.06255391E+00
  6998 9.75255391E+00
  8154 1.55125539E+01
  2320 -3.45888875E+00
  3476 -6.38888747E-01
  4632 2.52611125E+00
  5788 6.03611125E+00
  6944 9.71111125E+00
  8100 1.54711113E+01
  2319 -4.16425887E+00
  3475 -1.31425887E+00
  4631 1.86574113E+00
  5787 5.37574113E+00
  6943 9.03574113E+00
  8099 1.47507411E+01
  2323 -4.14570152E+00
  3479 -1.29570152E+00
  4635 1.88429848E+00
  5791 5.39429848E+00
  6947 9.03929848E+00
  8103 1.47092985E+01
  2322 -4.85107164E+00
  3478 -1.97107164E+00
  4634 1.22392836E+00
  5790 4.73392836E+00
  6946 8.36392836E+00
  8102 1.39889284E+01
  2321 -4.84751429E+00
  3477 -1.99751429E+00
  4633 1.19748571E+00
  5789 4.73748571E+00
  6945 8.36748571E+00
  8101 1.39474857E+01
  2317 -5.53788441E+00
  3473 -2.62788441E+00
  4629 5.82115587E-01
  5785 4.09211559E+00
  6941 7.69211559E+00
  8097 1.32271156E+01
  2313 -5.59574318E+00
  3469 -2.68574318E+00
  4625 5.39256822E-01
  5781 4.07925682E+00
  6937 7.67925682E+00
  8093 1.31692568E+01
  2316 -6.30058033E+00
  3472 -3.39058033E+00
  4628 -1.65580328E-01
  5784 3.37441967E+00
  6940 6.95941967E+00
  8096 1.24044197E+01
  2315 -6.41109644E+00
  3471 -3.47109644E+00
  4627 -2.46096438E-01
  5783 3.26390356E+00
  6939 6.83390356E+00
  8095 1.22789036E+01
  2338 -7.25984245E+00
  3494 -4.28984245E+00
  4650 -1.04984245E+00
  5806 2.46015755E+00
  6962 6.01515755E+00
  8118 1.14151575E+01
  2337 -7.39621650E+00
  3493 -4.42621650E+00
  4649 -1.18621650E+00
  5805 2.32378350E+00
  6961 5.86378350E+00
  8117 1.12187835E+01
  2340 -8.30763015E+00
  3496 -5.33763015E+00
  4652 -2.08263015E+00
  5808 1.45736985E+00
  6964 4.99736985E+00
  8120 1.03073699E+01
  2339 -8.48900420E+00
  3495 -5.48900420E+00
  4651 -2.23400420E+00
  5807 1.27599580E+00
  6963 4.80099580E+00
  8119 1.01109958E+01
  2342 -9.34041784E+00
  3498 -6.34041784E+00
  4654 -3.08541784E+00
  5810 4.24582161E-01
  6966 3.93458216E+00
  8122 9.19958216E+00
  2330 -9.53679189E+00
  3486 -6.53679189E+00
  4642 -3.26679189E+00
  5798 2.73208109E-01
  6954 3.78320811E+00
  8110 9.00320811E+00
  2329 -1.04332055E+01
  3485 -7.40320553E+00
  4641 -4.13320553E+00
  5797 -6.23205532E-01
  6953 2.87179447E+00
  8109 8.09179447E+00
  2333 -1.06295796E+01
  3489 -7.59957958E+00
  4645 -4.31457958E+00
  5801 -7.74579585E-01
  6957 2.72042042E+00
  8113 7.89542042E+00
  2331 -1.15259932E+01
  3487 -8.46599323E+00
  4643 -5.18099323E+00
  5799 -1.67099323E+00
  6955 1.80900677E+00
  8111 6.98400677E+00
  2334 -1.17223673E+01
  3490 -8.66236728E+00
  4646 -5.37736728E+00
  5802 -1.86736728E+00
  6958 1.61263272E+00
  8114 6.78763272E+00
  2463 -1.26337809E+01
  3619 -9.57378092E+00
  4775 -6.27378092E+00
  5931 -2.73378092E+00
  7087 7.46219080E-01
  8243 5.87621908E+00
  2396 -1.28151550E+01
  3552 -9.72515497E+00
  4708 -6.42515497E+00
  5864 -2.91515497E+00
  7020 5.49845028E-01
  8176 5.67984503E+00
  2395 -1.37265686E+01
  3551 -1.06365686E+01
  4707 -7.33656861E+00
  5863 -3.82656861E+00
  7019 -3.61568613E-01
  8175 4.76843139E+00
  2399 -1.39229427E+01
  3555 -1.08329427E+01
  4711 -7.53294267E+00
  5867 -4.02294267E+00
  7023 -5.57942665E-01
  8179 4.57205733E+00
  2398 -1.48343563E+01
  3554 -1.17443563E+01
  4710 -8.42935631E+00
  5866 -4.88935631E+00
  7022 -1.42435631E+00
  8178 3.66064369E+00
  2397 -1.49760322E+01
  3553 -1.18560322E+01
  4709 -8.54103216E+00
  5865 -5.03103216E+00
  7021 -1.58103216E+00
  8177 3.50396784E+00
  2393 -1.57674636E+01
  3549 -1.26474636E+01
  4705 -9.33246357E+00
  5861 -5.82246357E+00
  7017 -2.37246357E+00
  8173 2.71253643E+00
  2389 -1.57940652E+01
  3545 -1.26740652E+01
  4701 -9.34406520E+00
  5857 -5.80406520E+00
  7013 -2.35406520E+00
  8169 2.68593480E+00
  2392 -1.64633088E+01
  3548 -1.33133088E+01
  4704 -9.98330880E+00
  5860 -6.47330880E+00
  7016 -3.03830880E+00
  8172 2.00169120E+00
  2391 -1.64630066E+01
  3547 -1.33130066E+01
  4703 -9.96800665E+00
  5859 -6.42800665E+00
  7015 -2.99300665E+00
  8171 2.00199335E+00
  2406 -1.71154385E+01
  3562 -1.39354385E+01
  4718 -1.05904385E+01
  5874 -7.08043848E+00
  7030 -3.66043848E+00
  8186 1.33456152E+00
  2405 -1.70701363E+01
  3561 -1.39201363E+01
  4717 -1.05751363E+01
  5873 -7.03513633E+00
  7029 -3.61513633E+00
  8185 1.33486367E+00
  2408 -1.77225682E+01
  3564 -1.45425682E+01
  4720 -1.11975682E+01
  5876 -7.68756817E+00
  7032 -4.28256817E+00
  8188 6.67431835E-01
  2407 -1.76679611E+01
  3563 -1.44879611E+01
  4719 -1.11279611E+01
  5875 -7.58796106E+00
  7031 -4.18296106E+00
  8187 7.22038938E-01
END period  1

