# File generated by Flopy version 3.8.2 on 04/22/2025 at 13:44:53.
BEGIN options
  PRINT_INPUT
END options

BEGIN continuous  FILEOUT  steadymodel_observations.csv
  OBS5  head  3269
  OBS7  head  2517
  OBS6  head  3334
  OBS2  head  3394
  OBS1  head  3460
  OBS3  head  3282
END continuous  FILEOUT  steadymodel_observations.csv

