# File generated by Flopy version 3.8.2 on 05/14/2025 at 00:18:23.
BEGIN options
END options

BEGIN griddata
  strt
    CONSTANT     -10.00000000
END griddata

