# File generated by Flopy version 3.8.2 on 05/14/2025 at 00:18:23.
BEGIN options
  PRINT_INPUT
END options

BEGIN continuous  FILEOUT  steadymodel_observations.csv
  OBS1  head  17150
  OBS2  head  20365
  OBS3  head  21896
  OBS4  head  53906
  OBS5  head  31340
  OBS6  head  22745
  OBS7  head  13856
END continuous  FILEOUT  steadymodel_observations.csv

