# File generated by Flopy version 3.8.2 on 05/14/2025 at 00:18:23.
BEGIN options
END options

BEGIN dimensions
  MAXBOUND  2440
END dimensions

BEGIN period  1
  9907 2.27930108E+01
  25160 2.34630108E+01
  29760 2.41230108E+01
  34360 2.47830108E+01
  38960 2.62730108E+01
  43560 2.85930108E+01
  48160 3.09130108E+01
  52760 3.39030108E+01
  57360 3.75630108E+01
  61960 4.30530108E+01
  9397 2.31851862E+01
  24650 2.38451862E+01
  29250 2.44651862E+01
  33850 2.50851862E+01
  38450 2.65551862E+01
  43050 2.88751862E+01
  47650 3.11951862E+01
  52250 3.41951862E+01
  56850 3.78751862E+01
  61450 4.33951862E+01
  9903 2.29222914E+01
  25156 2.35922914E+01
  29756 2.42322914E+01
  34356 2.48722914E+01
  38956 2.63522914E+01
  43556 2.86722914E+01
  48156 3.09922914E+01
  52756 3.39822914E+01
  57356 3.76422914E+01
  61956 4.31322914E+01
  9905 2.31310104E+01
  25158 2.37910104E+01
  29758 2.44110104E+01
  34358 2.50310104E+01
  38958 2.65010104E+01
  43558 2.88210104E+01
  48158 3.11410104E+01
  52758 3.41410104E+01
  57358 3.78210104E+01
  61958 4.33410104E+01
  9406 2.28065193E+01
  24659 2.34765193E+01
  29259 2.41165193E+01
  33859 2.47565193E+01
  38459 2.62365193E+01
  43059 2.85565193E+01
  47659 3.08765193E+01
  52259 3.38665193E+01
  56859 3.75265193E+01
  61459 4.30165193E+01
  9402 2.30870987E+01
  24655 2.37470987E+01
  29255 2.43670987E+01
  33855 2.49870987E+01
  38455 2.64570987E+01
  43055 2.87770987E+01
  47655 3.10970987E+01
  52255 3.40970987E+01
  56855 3.77770987E+01
  61455 4.32970987E+01
  9657 2.27537653E+01
  24910 2.34137653E+01
  29510 2.40337653E+01
  34110 2.46537653E+01
  38710 2.61337653E+01
  43310 2.84737653E+01
  47910 3.08137653E+01
  52510 3.38137653E+01
  57110 3.74737653E+01
  61710 4.29637653E+01
  9399 2.30970987E+01
  24652 2.37370987E+01
  29252 2.43370987E+01
  33852 2.49370987E+01
  38452 2.64070987E+01
  43052 2.87470987E+01
  47652 3.10870987E+01
  52252 3.40970987E+01
  56852 3.77770987E+01
  61452 4.32970987E+01
  9654 2.27637653E+01
  24907 2.34137653E+01
  29507 2.40337653E+01
  34107 2.46537653E+01
  38707 2.61237653E+01
  43307 2.84437653E+01
  47907 3.07637653E+01
  52507 3.37637653E+01
  57107 3.74437653E+01
  61707 4.29637653E+01
  9408 2.30970987E+01
  24661 2.37370987E+01
  29261 2.43370987E+01
  33861 2.49370987E+01
  38461 2.63970987E+01
  43061 2.87170987E+01
  47661 3.10370987E+01
  52261 3.40470987E+01
  56861 3.77470987E+01
  61461 4.32970987E+01
  9660 2.27637653E+01
  24913 2.34137653E+01
  29513 2.40337653E+01
  34113 2.46537653E+01
  38713 2.61237653E+01
  43313 2.84437653E+01
  47913 3.07637653E+01
  52513 3.37637653E+01
  57113 3.74437653E+01
  61713 4.29637653E+01
  9962 2.29276424E+01
  25215 2.35676424E+01
  29815 2.41676424E+01
  34415 2.47676424E+01
  39015 2.62276424E+01
  43615 2.85476424E+01
  48215 3.08676424E+01
  52815 3.38776424E+01
  57415 3.75776424E+01
  62015 4.31276424E+01
  9401 2.32609757E+01
  24654 2.38909757E+01
  29254 2.44709757E+01
  33854 2.50509757E+01
  38454 2.65009757E+01
  43054 2.88209757E+01
  47654 3.11409757E+01
  52254 3.41609757E+01
  56854 3.78809757E+01
  61454 4.34609757E+01
  9658 2.30964230E+01
  24911 2.37264230E+01
  29511 2.43064230E+01
  34111 2.48864230E+01
  38711 2.63464230E+01
  43311 2.86864230E+01
  47911 3.10264230E+01
  52511 3.40464230E+01
  57111 3.77464230E+01
  61711 4.32964230E+01
  9953 2.33158793E+01
  25206 2.39458793E+01
  29806 2.45058793E+01
  34406 2.50658793E+01
  39006 2.65058793E+01
  43606 2.88258793E+01
  48206 3.11458793E+01
  52806 3.41658793E+01
  57406 3.78858793E+01
  62006 4.34658793E+01
  9957 2.31286534E+01
  25210 2.37586534E+01
  29810 2.43186534E+01
  34410 2.48786534E+01
  39010 2.63186534E+01
  43610 2.86386534E+01
  48210 3.09586534E+01
  52810 3.39786534E+01
  57410 3.76986534E+01
  62010 4.32786534E+01
  9958 2.31337499E+01
  25211 2.37537499E+01
  29811 2.43137499E+01
  34411 2.48737499E+01
  39011 2.63137499E+01
  43611 2.86337499E+01
  48211 3.09537499E+01
  52811 3.39737499E+01
  57411 3.76937499E+01
  62011 4.32737499E+01
  9664 2.33209757E+01
  24917 2.39309757E+01
  29517 2.44709757E+01
  34117 2.50109757E+01
  38717 2.64509757E+01
  43317 2.87909757E+01
  47917 3.11309757E+01
  52517 3.41609757E+01
  57117 3.78809757E+01
  61717 4.34609757E+01
  9425 2.31564230E+01
  24678 2.37664230E+01
  29278 2.43064230E+01
  33878 2.48464230E+01
  38478 2.62864230E+01
  43078 2.86264230E+01
  47678 3.09664230E+01
  52278 3.39964230E+01
  56878 3.77164230E+01
  61478 4.32964230E+01
  9920 2.33258793E+01
  25173 2.39358793E+01
  29773 2.44758793E+01
  34373 2.50158793E+01
  38973 2.64458793E+01
  43573 2.87658793E+01
  48173 3.10858793E+01
  52773 3.41158793E+01
  57373 3.78558793E+01
  61973 4.34658793E+01
  9924 2.31386534E+01
  25177 2.37486534E+01
  29777 2.42886534E+01
  34377 2.48286534E+01
  38977 2.62686534E+01
  43577 2.86086534E+01
  48177 3.09486534E+01
  52777 3.39786534E+01
  57377 3.76986534E+01
  61977 4.32786534E+01
  9927 2.31609625E+01
  25180 2.37709625E+01
  29780 2.43109625E+01
  34380 2.48509625E+01
  38980 2.62809625E+01
  43580 2.86009625E+01
  48180 3.09209625E+01
  52780 3.39509625E+01
  57380 3.76909625E+01
  61980 4.33009625E+01
  9925 2.33481883E+01
  25178 2.39481883E+01
  29778 2.44681883E+01
  34378 2.49881883E+01
  38978 2.64181883E+01
  43578 2.87581883E+01
  48178 3.10981883E+01
  52778 3.41381883E+01
  57378 3.78781883E+01
  61978 4.34881883E+01
  9929 2.31794077E+01
  25182 2.37894077E+01
  29782 2.43294077E+01
  34382 2.48694077E+01
  38982 2.62994077E+01
  43582 2.86194077E+01
  48182 3.09394077E+01
  52782 3.39694077E+01
  57382 3.77094077E+01
  61982 4.33194077E+01
  9417 2.33216514E+01
  24670 2.39216514E+01
  29270 2.44416514E+01
  33870 2.49616514E+01
  38470 2.63916514E+01
  43070 2.87316514E+01
  47670 3.10716514E+01
  52270 3.41116514E+01
  56870 3.78516514E+01
  61470 4.34616514E+01
  9673 2.31577743E+01
  24926 2.37677743E+01
  29526 2.43077743E+01
  34126 2.48477743E+01
  38726 2.62777743E+01
  43326 2.85977743E+01
  47926 3.09177743E+01
  52526 3.39477743E+01
  57126 3.76877743E+01
  61726 4.32977743E+01
  9935 2.33265549E+01
  25188 2.39265549E+01
  29788 2.44465549E+01
  34388 2.49665549E+01
  38988 2.63865549E+01
  43588 2.87065549E+01
  48188 3.10265549E+01
  52788 3.40665549E+01
  57388 3.78265549E+01
  61988 4.34665549E+01
  9936 2.29932216E+01
  25189 2.36032216E+01
  29789 2.41432216E+01
  34389 2.46832216E+01
  38989 2.61132216E+01
  43589 2.84332216E+01
  48189 3.07532216E+01
  52789 3.37832216E+01
  57389 3.75232216E+01
  61989 4.31332216E+01
  9667 2.31570987E+01
  24920 2.37570987E+01
  29520 2.42770987E+01
  34120 2.47970987E+01
  38720 2.62170987E+01
  43320 2.85370987E+01
  47920 3.08570987E+01
  52520 3.38970987E+01
  57120 3.76570987E+01
  61720 4.32970987E+01
  9424 2.28237653E+01
  24677 2.34337653E+01
  29277 2.39737653E+01
  33877 2.45137653E+01
  38477 2.59437653E+01
  43077 2.82637653E+01
  47677 3.05837653E+01
  52277 3.36137653E+01
  56877 3.73537653E+01
  61477 4.29637653E+01
  9669 2.31670987E+01
  24922 2.37570987E+01
  29522 2.42770987E+01
  34122 2.47970987E+01
  38722 2.62170987E+01
  43322 2.85370987E+01
  47922 3.08570987E+01
  52522 3.38970987E+01
  57122 3.76570987E+01
  61722 4.32970987E+01
  9413 2.28337653E+01
  24666 2.34237653E+01
  29266 2.39437653E+01
  33866 2.44637653E+01
  38466 2.58937653E+01
  43066 2.82337653E+01
  47666 3.05737653E+01
  52266 3.36137653E+01
  56866 3.73537653E+01
  61466 4.29637653E+01
  9983 2.29976424E+01
  25236 2.35876424E+01
  29836 2.41076424E+01
  34436 2.46276424E+01
  39036 2.60476424E+01
  43636 2.83676424E+01
  48236 3.06876424E+01
  52836 3.37276424E+01
  57436 3.74876424E+01
  62036 4.31276424E+01
  9670 2.33309757E+01
  24923 2.39109757E+01
  29523 2.44109757E+01
  34123 2.49109757E+01
  38723 2.63209757E+01
  43323 2.86409757E+01
  47923 3.09609757E+01
  52523 3.40109757E+01
  57123 3.77909757E+01
  61723 4.34609757E+01
  9422 2.31664230E+01
  24675 2.37464230E+01
  29275 2.42464230E+01
  33875 2.47464230E+01
  38475 2.61564230E+01
  43075 2.84764230E+01
  47675 3.07964230E+01
  52275 3.38464230E+01
  56875 3.76264230E+01
  61475 4.32964230E+01
  9971 2.33358793E+01
  25224 2.39058793E+01
  29824 2.43858793E+01
  34424 2.48658793E+01
  39024 2.62758793E+01
  43624 2.86158793E+01
  48224 3.09558793E+01
  52824 3.40158793E+01
  57424 3.77958793E+01
  62024 4.34658793E+01
  9975 2.31486534E+01
  25228 2.37286534E+01
  29828 2.42286534E+01
  34428 2.47286534E+01
  39028 2.61386534E+01
  43628 2.84586534E+01
  48228 3.07786534E+01
  52828 3.38286534E+01
  57428 3.76086534E+01
  62028 4.32786534E+01
  9978 2.31709625E+01
  25231 2.37409625E+01
  29831 2.42209625E+01
  34431 2.47009625E+01
  39031 2.61109625E+01
  43631 2.84509625E+01
  48231 3.07909625E+01
  52831 3.38509625E+01
  57431 3.76309625E+01
  62031 4.33009625E+01
  5376 2.27281883E+01
  9976 2.34081883E+01
  25229 2.39781883E+01
  29829 2.44381883E+01
  34429 2.48981883E+01
  39029 2.62881883E+01
  43629 2.86081883E+01
  48229 3.09281883E+01
  52829 3.39881883E+01
  57429 3.77881883E+01
  62029 4.34881883E+01
  5380 2.25594077E+01
  9980 2.32394077E+01
  25233 2.38094077E+01
  29833 2.42694077E+01
  34433 2.47294077E+01
  39033 2.61294077E+01
  43633 2.84694077E+01
  48233 3.08094077E+01
  52833 3.38694077E+01
  57433 3.76494077E+01
  62033 4.33194077E+01
  5074 2.27016514E+01
  9674 2.33816514E+01
  24927 2.39516514E+01
  29527 2.44116514E+01
  34127 2.48716514E+01
  38727 2.62616514E+01
  43327 2.85816514E+01
  47927 3.09016514E+01
  52527 3.39616514E+01
  57127 3.77616514E+01
  61727 4.34616514E+01
  4821 2.25377743E+01
  9421 2.32177743E+01
  24674 2.37877743E+01
  29274 2.42477743E+01
  33874 2.47077743E+01
  38474 2.60977743E+01
  43074 2.84177743E+01
  47674 3.07377743E+01
  52274 3.37977743E+01
  56874 3.75977743E+01
  61474 4.32977743E+01
  5384 2.27065549E+01
  9984 2.33865549E+01
  25237 2.39465549E+01
  29837 2.43865549E+01
  34437 2.48265549E+01
  39037 2.62165549E+01
  43637 2.85565549E+01
  48237 3.08965549E+01
  52837 3.39665549E+01
  57437 3.77665549E+01
  62037 4.34665549E+01
  9985 2.30032216E+01
  25238 2.35732216E+01
  29838 2.40532216E+01
  34438 2.45332216E+01
  39038 2.59332216E+01
  43638 2.82532216E+01
  48238 3.05732216E+01
  52838 3.36332216E+01
  57438 3.74332216E+01
  62038 4.31332216E+01
  9679 2.31670987E+01
  24932 2.37270987E+01
  29532 2.41870987E+01
  34132 2.46470987E+01
  38732 2.60470987E+01
  43332 2.83870987E+01
  47932 3.07270987E+01
  52532 3.37970987E+01
  57132 3.75970987E+01
  61732 4.32970987E+01
  9507 2.28337653E+01
  24760 2.34037653E+01
  29360 2.38837653E+01
  33960 2.43637653E+01
  38560 2.57637653E+01
  43160 2.80837653E+01
  47760 3.04037653E+01
  52360 3.34637653E+01
  56960 3.72637653E+01
  61560 4.29637653E+01
  9681 2.31670987E+01
  24934 2.37270987E+01
  29534 2.41870987E+01
  34134 2.46470987E+01
  38734 2.60370987E+01
  43334 2.83570987E+01
  47934 3.06770987E+01
  52534 3.37470987E+01
  57134 3.75670987E+01
  61734 4.32970987E+01
  9445 2.28337653E+01
  24698 2.34037653E+01
  29298 2.38837653E+01
  33898 2.43637653E+01
  38498 2.57637653E+01
  43098 2.80837653E+01
  47698 3.04037653E+01
  52298 3.34637653E+01
  56898 3.72637653E+01
  61498 4.29637653E+01
  9682 2.31670987E+01
  24935 2.37170987E+01
  29535 2.41570987E+01
  34135 2.45970987E+01
  38735 2.59870987E+01
  43335 2.83270987E+01
  47935 3.06670987E+01
  52535 3.37470987E+01
  57135 3.75670987E+01
  61735 4.32970987E+01
  9470 2.28337653E+01
  24723 2.33937653E+01
  29323 2.38537653E+01
  33923 2.43137653E+01
  38523 2.57037653E+01
  43123 2.80237653E+01
  47723 3.03437653E+01
  52323 3.34137653E+01
  56923 3.72337653E+01
  61523 4.29637653E+01
  4877 2.25370987E+01
  9477 2.31770987E+01
  24730 2.37170987E+01
  29330 2.41570987E+01
  33930 2.45970987E+01
  38530 2.59770987E+01
  43130 2.82970987E+01
  47730 3.06170987E+01
  52330 3.36970987E+01
  56930 3.75370987E+01
  61530 4.32970987E+01
  5094 2.22037653E+01
  9694 2.28437653E+01
  24947 2.33837653E+01
  29547 2.38237653E+01
  34147 2.42637653E+01
  38747 2.56537653E+01
  43347 2.79937653E+01
  47947 3.03337653E+01
  52547 3.34137653E+01
  57147 3.72337653E+01
  61747 4.29637653E+01
  5462 2.23676424E+01
  10062 2.30076424E+01
  25315 2.35476424E+01
  29915 2.39876424E+01
  34515 2.44276424E+01
  39115 2.58076424E+01
  43715 2.81276424E+01
  48315 3.04476424E+01
  52915 3.35276424E+01
  57515 3.73676424E+01
  62115 4.31276424E+01
  4875 2.27009757E+01
  9475 2.33409757E+01
  24728 2.38709757E+01
  29328 2.42909757E+01
  33928 2.47109757E+01
  38528 2.60809757E+01
  43128 2.84009757E+01
  47728 3.07209757E+01
  52328 3.38109757E+01
  56928 3.76709757E+01
  61528 4.34609757E+01
  5092 2.25364230E+01
  9692 2.31764230E+01
  24945 2.37064230E+01
  29545 2.41264230E+01
  34145 2.45464230E+01
  38745 2.59164230E+01
  43345 2.82364230E+01
  47945 3.05564230E+01
  52545 3.36464230E+01
  57145 3.75064230E+01
  61745 4.32964230E+01
  5453 2.27058793E+01
  10053 2.33458793E+01
  25306 2.38658793E+01
  29906 2.42658793E+01
  34506 2.46658793E+01
  39106 2.60358793E+01
  43706 2.83758793E+01
  48306 3.07158793E+01
  52906 3.38158793E+01
  57506 3.76758793E+01
  62106 4.34658793E+01
  5457 2.25186534E+01
  10057 2.31586534E+01
  25310 2.36886534E+01
  29910 2.41086534E+01
  34510 2.45286534E+01
  39110 2.58986534E+01
  43710 2.82186534E+01
  48310 3.05386534E+01
  52910 3.36286534E+01
  57510 3.74886534E+01
  62110 4.32786534E+01
  5458 2.25137499E+01
  10058 2.31537499E+01
  25311 2.36737499E+01
  29911 2.40737499E+01
  34511 2.44737499E+01
  39111 2.58437499E+01
  43711 2.81837499E+01
  48311 3.05237499E+01
  52911 3.36237499E+01
  57511 3.74837499E+01
  62111 4.32737499E+01
  5085 2.27009757E+01
  9685 2.33409757E+01
  24938 2.38609757E+01
  29538 2.42609757E+01
  34138 2.46609757E+01
  38738 2.60209757E+01
  43338 2.83409757E+01
  47938 3.06609757E+01
  52538 3.37609757E+01
  57138 3.76409757E+01
  61738 4.34609757E+01
  4884 2.25364230E+01
  9484 2.31764230E+01
  24737 2.36964230E+01
  29337 2.40964230E+01
  33937 2.44964230E+01
  38537 2.58564230E+01
  43137 2.81764230E+01
  47737 3.04964230E+01
  52337 3.35964230E+01
  56937 3.74764230E+01
  61537 4.32964230E+01
  5394 2.27058793E+01
  9994 2.33458793E+01
  25247 2.38558793E+01
  29847 2.42358793E+01
  34447 2.46158793E+01
  39047 2.59658793E+01
  43647 2.82858793E+01
  48247 3.06058793E+01
  52847 3.37158793E+01
  57447 3.76158793E+01
  62047 4.34658793E+01
  5398 2.25186534E+01
  9998 2.31586534E+01
  25251 2.36686534E+01
  29851 2.40486534E+01
  34451 2.44286534E+01
  39051 2.57886534E+01
  43651 2.81286534E+01
  48251 3.04686534E+01
  52851 3.35786534E+01
  57451 3.74586534E+01
  62051 4.32786534E+01
  5401 2.25409625E+01
  10001 2.31809625E+01
  25254 2.36909625E+01
  29854 2.40709625E+01
  34454 2.44509625E+01
  39054 2.58009625E+01
  43654 2.81209625E+01
  48254 3.04409625E+01
  52854 3.35509625E+01
  57454 3.74509625E+01
  62054 4.33009625E+01
  5399 2.27281883E+01
  9999 2.33681883E+01
  25252 2.38681883E+01
  29852 2.42281883E+01
  34452 2.45881883E+01
  39052 2.59381883E+01
  43652 2.82781883E+01
  48252 3.06181883E+01
  52852 3.37381883E+01
  57452 3.76381883E+01
  62052 4.34881883E+01
  5403 2.25594077E+01
  10003 2.31994077E+01
  25256 2.37094077E+01
  29856 2.40894077E+01
  34456 2.44694077E+01
  39056 2.58194077E+01
  43656 2.81394077E+01
  48256 3.04594077E+01
  52856 3.35694077E+01
  57456 3.74694077E+01
  62056 4.33194077E+01
  4879 2.27016514E+01
  9479 2.33416514E+01
  24732 2.38416514E+01
  29332 2.42016514E+01
  33932 2.45616514E+01
  38532 2.59116514E+01
  43132 2.82516514E+01
  47732 3.05916514E+01
  52332 3.37116514E+01
  56932 3.76116514E+01
  61532 4.34616514E+01
  5088 2.25377743E+01
  9688 2.31777743E+01
  24941 2.36877743E+01
  29541 2.40677743E+01
  34141 2.44477743E+01
  38741 2.57977743E+01
  43341 2.81177743E+01
  47941 3.04377743E+01
  52541 3.35477743E+01
  57141 3.74477743E+01
  61741 4.32977743E+01
  5409 2.27065549E+01
  10009 2.33465549E+01
  25262 2.38465549E+01
  29862 2.42065549E+01
  34462 2.45665549E+01
  39062 2.59065549E+01
  43662 2.82265549E+01
  48262 3.05465549E+01
  52862 3.36665549E+01
  57462 3.75865549E+01
  62062 4.34665549E+01
  5410 2.23732216E+01
  10010 2.30132216E+01
  25263 2.35232216E+01
  29863 2.39032216E+01
  34463 2.42832216E+01
  39063 2.56332216E+01
  43663 2.79532216E+01
  48263 3.02732216E+01
  52863 3.33832216E+01
  57463 3.72832216E+01
  62063 4.31332216E+01
  5091 2.25370987E+01
  9691 2.31770987E+01
  24944 2.36770987E+01
  29544 2.40370987E+01
  34144 2.43970987E+01
  38744 2.57370987E+01
  43344 2.80570987E+01
  47944 3.03770987E+01
  52544 3.34970987E+01
  57144 3.74170987E+01
  61744 4.32970987E+01
  4882 2.22037653E+01
  9482 2.28437653E+01
  24735 2.33437653E+01
  29335 2.37037653E+01
  33935 2.40637653E+01
  38535 2.54137653E+01
  43135 2.77537653E+01
  47735 3.00937653E+01
  52335 3.32137653E+01
  56935 3.71137653E+01
  61535 4.29637653E+01
  4903 2.25370987E+01
  9503 2.31770987E+01
  24756 2.36670987E+01
  29356 2.40070987E+01
  33956 2.43470987E+01
  38556 2.56870987E+01
  43156 2.80270987E+01
  47756 3.03670987E+01
  52356 3.34970987E+01
  56956 3.74170987E+01
  61556 4.32970987E+01
  5097 2.22037653E+01
  9697 2.28437653E+01
  24950 2.33437653E+01
  29550 2.37037653E+01
  34150 2.40637653E+01
  38750 2.54037653E+01
  43350 2.77237653E+01
  47950 3.00437653E+01
  52550 3.31637653E+01
  57150 3.70837653E+01
  61750 4.29637653E+01
  4886 2.25370987E+01
  9486 2.31770987E+01
  24739 2.36670987E+01
  29339 2.40070987E+01
  33939 2.43470987E+01
  38539 2.56770987E+01
  43139 2.79970987E+01
  47739 3.03170987E+01
  52339 3.34470987E+01
  56939 3.73870987E+01
  61539 4.32970987E+01
  5095 2.22037653E+01
  9695 2.28437653E+01
  24948 2.33337653E+01
  29548 2.36737653E+01
  34148 2.40137653E+01
  38748 2.53537653E+01
  43348 2.76937653E+01
  47948 3.00337653E+01
  52548 3.31637653E+01
  57148 3.70837653E+01
  61748 4.29637653E+01
  5105 2.25370987E+01
  9705 2.31770987E+01
  24958 2.36570987E+01
  29558 2.39770987E+01
  34158 2.42970987E+01
  38758 2.56170987E+01
  43358 2.79370987E+01
  47958 3.02570987E+01
  52558 3.33970987E+01
  57158 3.73570987E+01
  61758 4.32970987E+01
  4893 2.22037653E+01
  9493 2.28437653E+01
  24746 2.33337653E+01
  29346 2.36737653E+01
  33946 2.40137653E+01
  38546 2.53437653E+01
  43146 2.76637653E+01
  47746 2.99837653E+01
  52346 3.31137653E+01
  56946 3.70537653E+01
  61546 4.29637653E+01
  5106 2.25370987E+01
  9706 2.31770987E+01
  24959 2.36470987E+01
  29559 2.39470987E+01
  34159 2.42470987E+01
  38759 2.55670987E+01
  43359 2.79070987E+01
  47959 3.02470987E+01
  52559 3.33970987E+01
  57159 3.73570987E+01
  61759 4.32970987E+01
  4895 2.22037653E+01
  9495 2.28437653E+01
  24748 2.33237653E+01
  29348 2.36437653E+01
  33948 2.39637653E+01
  38548 2.52937653E+01
  43148 2.76337653E+01
  47748 2.99737653E+01
  52348 3.31137653E+01
  56948 3.70537653E+01
  61548 4.29637653E+01
  5099 2.25670987E+01
  9699 2.31870987E+01
  24952 2.36470987E+01
  29552 2.39470987E+01
  34152 2.42470987E+01
  38752 2.55570987E+01
  43352 2.78770987E+01
  47952 3.01970987E+01
  52552 3.33470987E+01
  57152 3.73270987E+01
  61752 4.32970987E+01
  4888 2.22337653E+01
  9488 2.28537653E+01
  24741 2.33237653E+01
  29341 2.36437653E+01
  33941 2.39637653E+01
  38541 2.52837653E+01
  43141 2.76037653E+01
  47741 2.99237653E+01
  52341 3.30637653E+01
  56941 3.70237653E+01
  61541 4.29637653E+01
  5100 2.25670987E+01
  9700 2.31870987E+01
  24953 2.36370987E+01
  29553 2.39170987E+01
  34153 2.41970987E+01
  38753 2.55070987E+01
  43353 2.78470987E+01
  47953 3.01870987E+01
  52553 3.33470987E+01
  57153 3.73270987E+01
  61753 4.32970987E+01
  4902 2.22337653E+01
  9502 2.28537653E+01
  24755 2.33137653E+01
  29355 2.36137653E+01
  33955 2.39137653E+01
  38555 2.52237653E+01
  43155 2.75437653E+01
  47755 2.98637653E+01
  52355 3.30137653E+01
  56955 3.69937653E+01
  61555 4.29637653E+01
  5485 2.23976424E+01
  10085 2.30176424E+01
  25338 2.34676424E+01
  29938 2.37476424E+01
  34538 2.40276424E+01
  39138 2.53376424E+01
  43738 2.76776424E+01
  48338 3.00176424E+01
  52938 3.31776424E+01
  57538 3.71576424E+01
  62138 4.31276424E+01
  5102 2.27309757E+01
  9702 2.33509757E+01
  24955 2.37909757E+01
  29555 2.40509757E+01
  34155 2.43109757E+01
  38755 2.56109757E+01
  43355 2.79509757E+01
  47955 3.02909757E+01
  52555 3.34609757E+01
  57155 3.74609757E+01
  61755 4.34609757E+01
  4890 2.25664230E+01
  9490 2.31864230E+01
  24743 2.36264230E+01
  29343 2.38864230E+01
  33943 2.41464230E+01
  38543 2.54464230E+01
  43143 2.77864230E+01
  47743 3.01264230E+01
  52343 3.32964230E+01
  56943 3.72964230E+01
  61543 4.32964230E+01
  5473 2.27358793E+01
  10073 2.33558793E+01
  25326 2.37958793E+01
  29926 2.40558793E+01
  34526 2.43158793E+01
  39126 2.56058793E+01
  43726 2.79258793E+01
  48326 3.02458793E+01
  52926 3.34158793E+01
  57526 3.74358793E+01
  62126 4.34658793E+01
  5477 2.25486534E+01
  10077 2.31686534E+01
  25330 2.36086534E+01
  29930 2.38686534E+01
  34530 2.41286534E+01
  39130 2.54186534E+01
  43730 2.77386534E+01
  48330 3.00586534E+01
  52930 3.32286534E+01
  57530 3.72486534E+01
  62130 4.32786534E+01
  5480 2.25709625E+01
  10080 2.31909625E+01
  25333 2.36309625E+01
  29933 2.38909625E+01
  34533 2.41509625E+01
  39133 2.54409625E+01
  43733 2.77609625E+01
  48333 3.00809625E+01
  52933 3.32509625E+01
  57533 3.72709625E+01
  62133 4.33009625E+01
  5478 2.27581883E+01
  10078 2.33781883E+01
  25331 2.38081883E+01
  29931 2.40481883E+01
  34531 2.42881883E+01
  39131 2.55781883E+01
  43731 2.79181883E+01
  48331 3.02581883E+01
  52931 3.34381883E+01
  57531 3.74581883E+01
  62131 4.34881883E+01
  5482 2.25806234E+01
  10082 2.32006234E+01
  25335 2.36306234E+01
  29935 2.38706234E+01
  34535 2.41106234E+01
  39135 2.54006234E+01
  43735 2.77406234E+01
  48335 3.00806234E+01
  52935 3.32606234E+01
  57535 3.72806234E+01
  62135 4.33106234E+01
  4891 2.27228671E+01
  9491 2.33428671E+01
  24744 2.37728671E+01
  29344 2.40128671E+01
  33944 2.42528671E+01
  38544 2.55328671E+01
  43144 2.78528671E+01
  47744 3.01728671E+01
  52344 3.33528671E+01
  56944 3.73928671E+01
  61544 4.34528671E+01
  4900 2.25363113E+01
  9500 2.31563113E+01
  24753 2.35863113E+01
  29353 2.38263113E+01
  33953 2.40663113E+01
  38553 2.53563113E+01
  43153 2.76963113E+01
  47753 3.00363113E+01
  52353 3.32163113E+01
  56953 3.72363113E+01
  61553 4.32663113E+01
  5479 2.27138762E+01
  10079 2.33338762E+01
  25332 2.37638762E+01
  29932 2.40038762E+01
  34532 2.42438762E+01
  39132 2.55238762E+01
  43732 2.78438762E+01
  48332 3.01638762E+01
  52932 3.33438762E+01
  57532 3.73838762E+01
  62132 4.34438762E+01
  5488 2.25806294E+01
  10088 2.32006294E+01
  25341 2.36306294E+01
  29941 2.38706294E+01
  34541 2.41106294E+01
  39141 2.53906294E+01
  43741 2.77106294E+01
  48341 3.00306294E+01
  52941 3.32106294E+01
  57541 3.72506294E+01
  62141 4.33106294E+01
  13852 1.54529416E+00
  17403 2.50529416E+00
  20954 3.46529416E+00
  24505 4.39529416E+00
  29105 5.29529416E+00
  33705 6.19529416E+00
  38305 7.81529416E+00
  42905 1.01552942E+01
  47505 1.24952942E+01
  52105 1.49452942E+01
  56705 1.75052942E+01
  61305 2.13452942E+01
  14368 1.11498869E+00
  17919 2.11498869E+00
  21470 3.11498869E+00
  25500 4.06498869E+00
  30100 4.96498869E+00
  34700 5.86498869E+00
  39300 7.47498869E+00
  43900 9.79498869E+00
  48500 1.21149887E+01
  53100 1.45449887E+01
  57700 1.70849887E+01
  62300 2.08949887E+01
  14367 1.00603245E+00
  17918 2.00603245E+00
  21469 3.00603245E+00
  25499 3.95603245E+00
  30099 4.85603245E+00
  34699 5.75603245E+00
  39299 7.36603245E+00
  43899 9.68603245E+00
  48499 1.20060325E+01
  53099 1.44360325E+01
  57699 1.69760325E+01
  62299 2.07860325E+01
  14366 6.25780375E-01
  17917 1.64578037E+00
  21468 2.66578037E+00
  25498 3.62578037E+00
  30098 4.52578037E+00
  34698 5.42578037E+00
  39298 7.03578037E+00
  43898 9.35578037E+00
  48498 1.16757804E+01
  53098 1.40957804E+01
  57698 1.66157804E+01
  62298 2.03957804E+01
  14352 6.21757309E-01
  17903 1.66175731E+00
  21454 2.70175731E+00
  25484 3.65175731E+00
  30084 4.51175731E+00
  34684 5.37175731E+00
  39284 6.97175731E+00
  43884 9.31175731E+00
  48484 1.16517573E+01
  53084 1.40817573E+01
  57684 1.66017573E+01
  62284 2.03817573E+01
  13843 2.59554408E-01
  17394 1.31955441E+00
  20945 2.37955441E+00
  24496 3.33955441E+00
  29096 4.19955441E+00
  33696 5.05955441E+00
  38296 6.65955441E+00
  42896 8.99955441E+00
  47496 1.13395544E+01
  52096 1.37595544E+01
  56696 1.62595544E+01
  61296 2.00095544E+01
  14392 2.50170466E-01
  17943 1.31017047E+00
  21494 2.37017047E+00
  25524 3.33017047E+00
  30124 4.19017047E+00
  34724 5.05017047E+00
  39324 6.65017047E+00
  43924 8.99017047E+00
  48524 1.13301705E+01
  53124 1.37501705E+01
  57724 1.62501705E+01
  62324 2.00001705E+01
  14395 -1.10733775E-01
  17946 9.69266225E-01
  21497 2.04926623E+00
  25527 3.01926623E+00
  30127 3.87926623E+00
  34727 4.73926623E+00
  39327 6.32926623E+00
  43927 8.64926623E+00
  48527 1.09692662E+01
  53127 1.33792662E+01
  57727 1.58792662E+01
  62327 1.96292662E+01
  14391 -1.39795838E-01
  17942 9.40204162E-01
  21493 2.02020416E+00
  25523 2.99020416E+00
  30123 3.85020416E+00
  34723 4.71020416E+00
  39323 6.30020416E+00
  43923 8.62020416E+00
  48523 1.09402042E+01
  53123 1.33502042E+01
  57723 1.58502042E+01
  62323 1.96002042E+01
  14397 -5.05339203E-01
  17948 5.94660797E-01
  21499 1.69466080E+00
  25529 2.67466080E+00
  30129 3.53466080E+00
  34729 4.39466080E+00
  39329 5.98466080E+00
  43929 8.30466080E+00
  48529 1.06246608E+01
  53129 1.30246608E+01
  57729 1.55046608E+01
  62329 1.92246608E+01
  13840 -6.04295436E-01
  17391 5.15704564E-01
  20942 1.63570456E+00
  24493 2.61570456E+00
  29093 3.45570456E+00
  33693 4.29570456E+00
  38293 5.87570456E+00
  42893 8.19570456E+00
  47493 1.05157046E+01
  52093 1.29157046E+01
  56693 1.53957046E+01
  61293 1.91157046E+01
  14404 -1.04639251E+00
  17955 9.36074934E-02
  21506 1.23360749E+00
  25536 2.22360749E+00
  30136 3.06360749E+00
  34736 3.90360749E+00
  39336 5.48360749E+00
  43936 7.80360749E+00
  48536 1.01236075E+01
  53136 1.25136075E+01
  57736 1.49736075E+01
  62336 1.86636075E+01
  14401 -1.06041557E+00
  17952 7.95844272E-02
  21503 1.21958443E+00
  25533 2.20958443E+00
  30133 3.04958443E+00
  34733 3.88958443E+00
  39333 5.46958443E+00
  43933 7.78958443E+00
  48533 1.01095844E+01
  53133 1.24995844E+01
  57733 1.49595844E+01
  62333 1.86495844E+01
  14407 -1.42261847E+00
  17958 -2.62618473E-01
  21509 8.97381527E-01
  25539 1.89738153E+00
  30139 2.73738153E+00
  34739 3.57738153E+00
  39339 5.15738153E+00
  43939 7.47738153E+00
  48539 9.79738153E+00
  53139 1.21773815E+01
  57739 1.46173815E+01
  62339 1.82773815E+01
  14416 -1.43200242E+00
  17967 -2.72002415E-01
  21518 8.87997585E-01
  25548 1.88799758E+00
  30148 2.72799758E+00
  34748 3.56799758E+00
  39348 5.14799758E+00
  43948 7.46799758E+00
  48548 9.78799758E+00
  53148 1.21679976E+01
  57748 1.46079976E+01
  62348 1.82679976E+01
  14417 -1.79290666E+00
  17968 -6.12906656E-01
  21519 5.67093344E-01
  25549 1.57709334E+00
  30149 2.41709334E+00
  34749 3.25709334E+00
  39349 4.83709334E+00
  43949 7.15709334E+00
  48549 9.47709334E+00
  53149 1.18470933E+01
  57749 1.42670933E+01
  62349 1.78970933E+01
  13842 -1.82196872E+00
  17393 -6.41968720E-01
  20944 5.38031280E-01
  24495 1.54803128E+00
  29095 2.38803128E+00
  33695 3.22803128E+00
  38295 4.80803128E+00
  42895 7.12803128E+00
  47495 9.44803128E+00
  52095 1.18180313E+01
  56695 1.42380313E+01
  61295 1.78680313E+01
  14420 -2.18751208E+00
  17971 -9.87512085E-01
  21522 2.12487915E-01
  25552 1.23248792E+00
  30152 2.07248792E+00
  34752 2.91248792E+00
  39352 4.49248792E+00
  43952 6.81248792E+00
  48552 9.13248792E+00
  53152 1.14924879E+01
  57752 1.38924879E+01
  62352 1.74924879E+01
  14421 -2.17608268E+00
  17972 -9.76082680E-01
  21523 2.23917320E-01
  25553 1.23391732E+00
  30153 2.05391732E+00
  34753 2.87391732E+00
  39353 4.45391732E+00
  43953 6.79391732E+00
  48553 9.13391732E+00
  53153 1.15039173E+01
  57753 1.39039173E+01
  62353 1.75039173E+01
  14428 -2.34311929E+00
  17979 -1.12311929E+00
  21530 9.68807095E-02
  25560 1.11688071E+00
  30160 1.93688071E+00
  34760 2.75688071E+00
  39360 4.32688071E+00
  43960 6.64688071E+00
  48560 8.96688071E+00
  53160 1.13268807E+01
  57760 1.37268807E+01
  62360 1.73268807E+01
  14426 -2.72947600E+00
  17977 -1.48947600E+00
  21528 -2.49476002E-01
  25558 7.80523998E-01
  30158 1.60052400E+00
  34758 2.42052400E+00
  39358 3.99052400E+00
  43958 6.31052400E+00
  48558 8.63052400E+00
  53158 1.09805240E+01
  57758 1.33605240E+01
  62358 1.69305240E+01
  13871 -2.74092401E+00
  17422 -1.50092401E+00
  20973 -2.60924007E-01
  24524 7.69075993E-01
  29124 1.58907599E+00
  33724 2.40907599E+00
  38324 3.97907599E+00
  42924 6.29907599E+00
  47524 8.61907599E+00
  52124 1.09690760E+01
  56724 1.33490760E+01
  61324 1.69190760E+01
  13861 -3.08173474E+00
  17412 -1.82173474E+00
  20963 -5.61734743E-01
  24514 4.78265257E-01
  29114 1.29826526E+00
  33714 2.11826526E+00
  38314 3.68826526E+00
  42914 6.00826526E+00
  47514 8.32826526E+00
  52114 1.06682653E+01
  56714 1.30282653E+01
  61314 1.65682653E+01
  14434 -3.05514800E+00
  17985 -1.79514800E+00
  21536 -5.35147996E-01
  25566 5.04852004E-01
  30166 1.32485200E+00
  34766 2.14485200E+00
  39366 3.71485200E+00
  43966 6.03485200E+00
  48566 8.35485200E+00
  53166 1.06948520E+01
  57766 1.30548520E+01
  62366 1.65948520E+01
  14442 -3.38766420E+00
  17993 -2.12766420E+00
  21544 -8.67664198E-01
  25574 1.72335802E-01
  30174 9.92335802E-01
  34774 1.81233580E+00
  39374 3.39233580E+00
  43974 5.73233580E+00
  48574 8.07233580E+00
  53174 1.04123358E+01
  57774 1.27523358E+01
  62374 1.62623358E+01
  14443 -3.37272157E+00