# File generated by Flopy version 3.8.2 on 04/22/2025 at 13:44:53.
BEGIN options
END options

BEGIN dimensions
  MAXBOUND  1156
END dimensions

BEGIN period  1
  1 2.73972603E-07
  1 2.73972603E-07
  1 2.73972603E-07
  1 2.73972603E-07
  1 2.73972603E-07
  1 2.73972603E-07
  1 2.73972603E-07
  1 2.73972603E-07
  1 2.73972603E-07
  1 2.73972603E-07
  1 2.73972603E-07
  1 2.73972603E-07
  1 2.73972603E-07
  1 2.73972603E-07
  1 2.73972603E-07
  1 2.73972603E-07
  1 2.73972603E-07
  1 2.73972603E-07
  1 2.73972603E-07
  1 2.73972603E-07
  1 2.73972603E-07
  1 2.73972603E-07
  1 2.73972603E-07
  1 2.73972603E-07
  1 2.73972603E-07
  1 2.73972603E-07
  1 2.73972603E-07
  1 2.73972603E-07
  1 2.73972603E-07
  1 2.73972603E-07
  1 2.73972603E-07
  1 2.73972603E-07
  1 2.73972603E-07
  1 2.73972603E-07
  1 2.73972603E-07
  1 2.73972603E-07
  1 2.73972603E-07
  1 2.73972603E-07
  1 2.73972603E-07
  1 2.73972603E-07
  1 2.73972603E-07
  1 2.73972603E-07
  1 2.73972603E-07
  1 2.73972603E-07
  1 2.73972603E-07
  1 2.73972603E-07
  1 2.73972603E-07
  1 2.73972603E-07
  1 2.73972603E-07
  1 2.73972603E-07
  1 2.73972603E-07
  1 2.73972603E-07
  1 2.73972603E-07
  1 2.73972603E-07
  1 2.73972603E-07
  1 2.73972603E-07
  1 2.73972603E-07
  1 2.73972603E-07
  1 2.73972603E-07
  1 2.73972603E-07
  1 2.73972603E-07
  1 2.73972603E-07
  1 2.73972603E-07
  1 2.73972603E-07
  1 2.73972603E-07
  1 2.73972603E-07
  1 2.73972603E-07
  1 2.73972603E-07
  1 2.73972603E-07
  1 2.73972603E-07
  1 2.73972603E-07
  1 2.73972603E-07
  1 2.73972603E-07
  1 2.73972603E-07
  1 2.73972603E-07
  1 2.73972603E-07
  1 2.73972603E-07
  1 2.73972603E-07
  1 2.73972603E-07
  1 2.73972603E-07
  1 2.73972603E-07
  1 2.73972603E-07
  1 2.73972603E-07
  1 2.73972603E-07
  1 2.73972603E-07
  1 2.73972603E-07
  1 2.73972603E-07
  1 2.73972603E-07
  1 2.73972603E-07
  1 2.73972603E-07
  1 2.73972603E-07
  1 2.73972603E-07
  1 2.73972603E-07
  1 2.73972603E-07
  1 2.73972603E-07
  1 2.73972603E-07
  1 2.73972603E-07
  1 2.73972603E-07
  1 2.73972603E-07
  1 2.73972603E-07
  1 2.73972603E-07
  1 2.73972603E-07
  1 2.73972603E-07
  1 2.73972603E-07
  1 2.73972603E-07
  1 2.73972603E-07
  1 2.73972603E-07
  1 2.73972603E-07
  1 2.73972603E-07
  1 2.73972603E-07
  1 2.73972603E-07
  1 2.73972603E-07
  1 2.73972603E-07
  1 2.73972603E-07
  1 2.73972603E-07
  1 2.73972603E-07
  1 2.73972603E-07
  1 2.73972603E-07
  1 2.73972603E-07
  1 2.73972603E-07
  1 2.73972603E-07
  1 2.73972603E-07
  1 2.73972603E-07
  1 2.73972603E-07
  1 2.73972603E-07
  1 2.73972603E-07
  1 2.73972603E-07
  1 2.73972603E-07
  1 2.73972603E-07
  1 2.73972603E-07
  1 2.73972603E-07
  1 2.73972603E-07
  1 2.73972603E-07
  1 2.73972603E-07
  1 2.73972603E-07
  1 2.73972603E-07
  1 2.73972603E-07
  1 2.73972603E-07
  1 2.73972603E-07
  1 2.73972603E-07
  1 2.73972603E-07
  1 2.73972603E-07
  1 2.73972603E-07
  1 2.73972603E-07
  1 2.73972603E-07
  1 2.73972603E-07
  1 2.73972603E-07
  1 2.73972603E-07
  1 2.73972603E-07
  1 2.73972603E-07
  1 2.73972603E-07
  1 2.73972603E-07
  1 2.73972603E-07
  1 2.73972603E-07
  1 2.73972603E-07
  1 2.73972603E-07
  1 2.73972603E-07
  1 2.73972603E-07
  1 2.73972603E-07
  1 2.73972603E-07
  1 2.73972603E-07
  1 2.73972603E-07
  1 2.73972603E-07
  1 2.73972603E-07
  1 2.73972603E-07
  1 2.73972603E-07
  1 2.73972603E-07
  1 2.73972603E-07
  1 2.73972603E-07
  1 2.73972603E-07
  1 2.73972603E-07
  1 2.73972603E-07
  1 2.73972603E-07
  1 2.73972603E-07
  1 2.73972603E-07
  1 2.73972603E-07
  1 2.73972603E-07
  1 2.73972603E-07
  1 2.73972603E-07
  1 2.73972603E-07
  1 2.73972603E-07
  1 2.73972603E-07
  1 2.73972603E-07
  1 2.73972603E-07
  1 2.73972603E-07
  1 2.73972603E-07
  1 2.73972603E-07
  1 2.73972603E-07
  1 2.73972603E-07
  1 2.73972603E-07
  1 2.73972603E-07
  1 2.73972603E-07
  1 2.73972603E-07
  1 2.73972603E-07
  1 2.73972603E-07
  1 2.73972603E-07
  1 2.73972603E-07
  1 2.73972603E-07
  1 2.73972603E-07
  1 2.73972603E-07
  1 2.73972603E-07
  1 2.73972603E-07
  1 2.73972603E-07
  1 2.73972603E-07
  1 2.73972603E-07
  1 2.73972603E-07
  1 2.73972603E-07
  1 2.73972603E-07
  1 2.73972603E-07
  1 2.73972603E-07
  1 2.73972603E-07
  1 2.73972603E-07
  1 2.73972603E-07
  1 2.73972603E-07
  1 2.73972603E-07
  1 2.73972603E-07
  1 2.73972603E-07
  1 2.73972603E-07
  1 2.73972603E-07
  1 2.73972603E-07
  1 2.73972603E-07
  1 2.73972603E-07
  1 2.73972603E-07
  1 2.73972603E-07
  1 2.73972603E-07
  1 2.73972603E-07
  1 2.73972603E-07
  1 2.73972603E-07
  1 2.73972603E-07
  1 2.73972603E-07
  1 2.73972603E-07
  1 2.73972603E-07
  1 2.73972603E-07
  1 2.73972603E-07
  1 2.73972603E-07
  1 2.73972603E-07
  1 2.73972603E-07
  1 2.73972603E-07
  1 2.73972603E-07
  1 2.73972603E-07
  1 2.73972603E-07
  1 2.73972603E-07
  1 2.73972603E-07
  1 2.73972603E-07
  1 2.73972603E-07
  1 2.73972603E-07
  1 2.73972603E-07
  1 2.73972603E-07
  1 2.73972603E-07
  1 2.73972603E-07
  1 2.73972603E-07
  1 2.73972603E-07
  1 2.73972603E-07
  1 2.73972603E-07
  1 2.73972603E-07
  1 2.73972603E-07
  1 2.73972603E-07
  1 2.73972603E-07
  1 2.73972603E-07
  1 2.73972603E-07
  1 2.73972603E-07
  1 2.73972603E-07
  1 2.73972603E-07
  1 2.73972603E-07
  1 2.73972603E-07
  1 2.73972603E-07
  1 2.73972603E-07
  1 2.73972603E-07
  1 2.73972603E-07
  1 2.73972603E-07
  1 2.73972603E-07
  1 2.73972603E-07
  1 2.73972603E-07
  1 2.73972603E-07
  1 2.73972603E-07
  1 2.73972603E-07
  1 2.73972603E-07
  1 2.73972603E-07
  1 2.73972603E-07
  1 2.73972603E-07
  1 2.73972603E-07
  1 2.73972603E-07
  1 2.73972603E-07
  1 2.73972603E-07
  1 2.73972603E-07
  1 2.73972603E-07
  1 2.73972603E-07
  1 2.73972603E-07
  1 2.73972603E-07
  1 2.73972603E-07
  1 2.73972603E-07
  1 2.73972603E-07
  1 2.73972603E-07
  1 2.73972603E-07
  1 2.73972603E-07
  1 2.73972603E-07
  1 2.73972603E-07
  1 2.73972603E-07
  1 2.73972603E-07
  1 2.73972603E-07
  1 2.73972603E-07
  1 2.73972603E-07
  1 2.73972603E-07
  1 2.73972603E-07
  1 2.73972603E-07
  1 2.73972603E-07
  1 2.73972603E-07
  1 2.73972603E-07
  1 2.73972603E-07
  1 2.73972603E-07
  1 2.73972603E-07
  1 2.73972603E-07
  1 2.73972603E-07
  1 2.73972603E-07
  1 2.73972603E-07
  1 2.73972603E-07
  1 2.73972603E-07
  1 2.73972603E-07
  1 2.73972603E-07
  1 2.73972603E-07
  1 2.73972603E-07
  1 2.73972603E-07
  1 2.73972603E-07
  1 2.73972603E-07
  1 2.73972603E-07
  1 2.73972603E-07
  1 2.73972603E-07
  1 2.73972603E-07
  1 2.73972603E-07
  1 2.73972603E-07
  1 2.73972603E-07
  1 2.73972603E-07
  1 2.73972603E-07
  1 2.73972603E-07
  1 2.73972603E-07
  1 2.73972603E-07
  1 2.73972603E-07
  1 2.73972603E-07
  1 2.73972603E-07
  1 2.73972603E-07
  1 2.73972603E-07
  1 2.73972603E-07
  1 2.73972603E-07
  1 2.73972603E-07
  1 2.73972603E-07
  1 2.73972603E-07
  1 2.73972603E-07
  1 2.73972603E-07
  1 2.73972603E-07
  1 2.73972603E-07
  1 2.73972603E-07
  1 2.73972603E-07
  1 2.73972603E-07
  1 2.73972603E-07
  1 2.73972603E-07
  1 2.73972603E-07
  1 2.73972603E-07
  1 2.73972603E-07
  1 2.73972603E-07
  1 2.73972603E-07
  1 2.73972603E-07
  1 2.73972603E-07
  1 2.73972603E-07
  1 2.73972603E-07
  1 2.73972603E-07
  1 2.73972603E-07
  1 2.73972603E-07
  1 2.73972603E-07
  1 2.73972603E-07
  1 2.73972603E-07
  1 2.73972603E-07
  1 2.73972603E-07
  1 2.73972603E-07
  1 2.73972603E-07
  1 2.73972603E-07
  1 2.73972603E-07
  1 2.73972603E-07
  1 2.73972603E-07
  1 2.73972603E-07
  1 2.73972603E-07
  1 2.73972603E-07
  1 2.73972603E-07
  1 2.73972603E-07
  1 2.73972603E-07
  1 2.73972603E-07
  1 2.73972603E-07
  1 2.73972603E-07
  1 2.73972603E-07
  1 2.73972603E-07
  1 2.73972603E-07
  1 2.73972603E-07
  1 2.73972603E-07
  1 2.73972603E-07
  1 2.73972603E-07
  1 2.73972603E-07
  1 2.73972603E-07
  1 2.73972603E-07
  1 2.73972603E-07
  1 2.73972603E-07
  1 2.73972603E-07
  1 2.73972603E-07
  1 2.73972603E-07
  1 2.73972603E-07
  1 2.73972603E-07
  1 2.73972603E-07
  1 2.73972603E-07
  1 2.73972603E-07
  1 2.73972603E-07
  1 2.73972603E-07
  1 2.73972603E-07
  1 2.73972603E-07
  1 2.73972603E-07
  1 2.73972603E-07
  1 2.73972603E-07
  1 2.73972603E-07
  1 2.73972603E-07
  1 2.73972603E-07
  1 2.73972603E-07
  1 2.73972603E-07
  1 2.73972603E-07
  1 2.73972603E-07
  1 2.73972603E-07
  1 2.73972603E-07
  1 2.73972603E-07
  1 2.73972603E-07
  1 2.73972603E-07
  1 2.73972603E-07
  1 2.73972603E-07
  1 2.73972603E-07
  1 2.73972603E-07
  1 2.73972603E-07
  1 2.73972603E-07
  1 2.73972603E-07
  1 2.73972603E-07
  1 2.73972603E-07
  1 2.73972603E-07
  1 2.73972603E-07
  1 2.73972603E-07
  1 2.73972603E-07
  1 2.73972603E-07
  1 2.73972603E-07
  1 2.73972603E-07
  1 2.73972603E-07
  1 2.73972603E-07
  1 2.73972603E-07
  1 2.73972603E-07
  1 2.73972603E-07
  1 2.73972603E-07
  1 2.73972603E-07
  1 2.73972603E-07
  1 2.73972603E-07
  1 2.73972603E-07
  1 2.73972603E-07
  1 2.73972603E-07
  1 2.73972603E-07
  1 2.73972603E-07
  1 2.73972603E-07
  1 2.73972603E-07
  1 2.73972603E-07
  1 2.73972603E-07
  1 2.73972603E-07
  1 2.73972603E-07
  1 2.73972603E-07
  1 2.73972603E-07
  1 2.73972603E-07
  1 2.73972603E-07
  1 2.73972603E-07
  1 2.73972603E-07
  1 2.73972603E-07
  1 2.73972603E-07
  1 2.73972603E-07
  1 2.73972603E-07
  1 2.73972603E-07
  1 2.73972603E-07
  1 2.73972603E-07
  1 2.73972603E-07
  1 2.73972603E-07
  1 2.73972603E-07
  1 2.73972603E-07
  1 2.73972603E-07
  1 2.73972603E-07
  1 2.73972603E-07
  1 2.73972603E-07
  1 2.73972603E-07
  1 2.73972603E-07
  1 2.73972603E-07
  1 2.73972603E-07
  1 2.73972603E-07
  1 2.73972603E-07
  1 2.73972603E-07
  1 2.73972603E-07
  1 2.73972603E-07
  1 2.73972603E-07
  1 2.73972603E-07
  1 2.73972603E-07
  1 2.73972603E-07
  1 2.73972603E-07
  1 2.73972603E-07
  1 2.73972603E-07
  1 2.73972603E-07
  1 2.73972603E-07
  1 2.73972603E-07
  1 2.73972603E-07
  1 2.73972603E-07
  1 2.73972603E-07
  1 2.73972603E-07
  1 2.73972603E-07
  1 2.73972603E-07
  1 2.73972603E-07
  1 2.73972603E-07
  1 2.73972603E-07
  1 2.73972603E-07
  1 2.73972603E-07
  1 2.73972603E-07
  1 2.73972603E-07
  1 2.73972603E-07
  1 2.73972603E-07
  1 2.73972603E-07
  1 2.73972603E-07
  1 2.73972603E-07
  1 2.73972603E-07
  1 2.73972603E-07
  1 2.73972603E-07
  1 2.73972603E-07
  1 2.73972603E-07
  1 2.73972603E-07
  1 2.73972603E-07
  1 2.73972603E-07
  1 2.73972603E-07
  1 2.73972603E-07
  1 2.73972603E-07
  1 2.73972603E-07
  1 2.73972603E-07
  1 2.73972603E-07
  1 2.73972603E-07
  1 2.73972603E-07
  1 2.73972603E-07
  1 2.73972603E-07
  1 2.73972603E-07
  1 2.73972603E-07
  1 2.73972603E-07
  1 2.73972603E-07
  1 2.73972603E-07
  1 2.73972603E-07
  1 2.73972603E-07
  1 2.73972603E-07
  1 2.73972603E-07
  1 2.73972603E-07
  1 2.73972603E-07
  1 2.73972603E-07
  1 2.73972603E-07
  1 2.73972603E-07
  1 2.73972603E-07
  1 2.73972603E-07
  1 2.73972603E-07
  1 2.73972603E-07
  1 2.73972603E-07
  1 2.73972603E-07
  1 2.73972603E-07
  1 2.73972603E-07
  1 2.73972603E-07
  1 2.73972603E-07
  1 2.73972603E-07
  1 2.73972603E-07
  1 2.73972603E-07
  1 2.73972603E-07
  1 2.73972603E-07
  1 2.73972603E-07
  1 2.73972603E-07
  1 2.73972603E-07
  1 2.73972603E-07
  1 2.73972603E-07
  1 2.73972603E-07
  1 2.73972603E-07
  1 2.73972603E-07
  1 2.73972603E-07
  1 2.73972603E-07
  1 2.73972603E-07
  1 2.73972603E-07
  1 2.73972603E-07
  1 2.73972603E-07
  1 2.73972603E-07
  1 2.73972603E-07
  1 2.73972603E-07
  1 2.73972603E-07
  1 2.73972603E-07
  1 2.73972603E-07
  1 2.73972603E-07
  1 2.73972603E-07
  1 2.73972603E-07
  1 2.73972603E-07
  1 2.73972603E-07
  1 2.73972603E-07
  1 2.73972603E-07
  1 2.73972603E-07
  1 2.73972603E-07
  1 2.73972603E-07
  1 2.73972603E-07
  1 2.73972603E-07
  1 2.73972603E-07
  1 2.73972603E-07
  1 2.73972603E-07
  1 2.73972603E-07
  1 2.73972603E-07
  1 2.73972603E-07
  1 2.73972603E-07
  1 2.73972603E-07
  1 2.73972603E-07
  1 2.73972603E-07
  1 2.73972603E-07
  1 2.73972603E-07
  1 2.73972603E-07
  1 2.73972603E-07
  1 2.73972603E-07
  1 2.73972603E-07
  1 2.73972603E-07
  1 2.73972603E-07
  1 2.73972603E-07
  1 2.73972603E-07
  1 2.73972603E-07
  1 2.73972603E-07
  1 2.73972603E-07
  1 2.73972603E-07
  1 2.73972603E-07
  1 2.73972603E-07
  1 2.73972603E-07
  1 2.73972603E-07
  1 2.73972603E-07
  1 2.73972603E-07
  1 2.73972603E-07
  1 2.73972603E-07
  1 2.73972603E-07
  1 2.73972603E-07
  1 2.73972603E-07
  1 2.73972603E-07
  1 2.73972603E-07
  1 2.73972603E-07
  1 2.73972603E-07
  1 2.73972603E-07
  1 2.73972603E-07
  1 2.73972603E-07
  1 2.73972603E-07
  1 2.73972603E-07
  1 2.73972603E-07
  1 2.73972603E-07
  1 2.73972603E-07
  1 2.73972603E-07
  1 2.73972603E-07
  1 2.73972603E-07
  1 2.73972603E-07
  1 2.73972603E-07
  1 2.73972603E-07
  1 2.73972603E-07
  1 2.73972603E-07
  1 2.73972603E-07
  1 2.73972603E-07
  1 2.73972603E-07
  1 2.73972603E-07
  1 2.73972603E-07
  1 2.73972603E-07
  1 2.73972603E-07
  1 2.73972603E-07
  1 2.73972603E-07
  1 2.73972603E-07
  1 2.73972603E-07
  1 2.73972603E-07
  1 2.73972603E-07
  1 2.73972603E-07
  1 2.73972603E-07
  1 2.73972603E-07
  1 2.73972603E-07
  1 2.73972603E-07
  1 2.73972603E-07
  1 2.73972603E-07
  1 2.73972603E-07
  1 2.73972603E-07
  1 2.73972603E-07
  1 2.73972603E-07
  1 2.73972603E-07
  1 2.73972603E-07
  1 2.73972603E-07
  1 2.73972603E-07
  1 2.73972603E-07
  1 2.73972603E-07
  1 2.73972603E-07
  1 2.73972603E-07
  1 2.73972603E-07
  1 2.73972603E-07
  1 2.73972603E-07
  1 2.73972603E-07
  1 2.73972603E-07
  1 2.73972603E-07
  1 2.73972603E-07
  1 2.73972603E-07
  1 2.73972603E-07
  1 2.73972603E-07
  1 2.73972603E-07
  1 2.73972603E-07
  1 2.73972603E-07
  1 2.73972603E-07
  1 2.73972603E-07
  1 2.73972603E-07
  1 2.73972603E-07
  1 2.73972603E-07
  1 2.73972603E-07
  1 2.73972603E-07
  1 2.73972603E-07
  1 2.73972603E-07
  1 2.73972603E-07
  1 2.73972603E-07
  1 2.73972603E-07
  1 2.73972603E-07
  1 2.73972603E-07
  1 2.73972603E-07
  1 2.73972603E-07
  1 2.73972603E-07
  1 2.73972603E-07
  1 2.73972603E-07
  1 2.73972603E-07
  1 2.73972603E-07
  1 2.73972603E-07
  1 2.73972603E-07
  1 2.73972603E-07
  1 2.73972603E-07
  1 2.73972603E-07
  1 2.73972603E-07
  1 2.73972603E-07
  1 2.73972603E-07
  1 2.73972603E-07
  1 2.73972603E-07
  1 2.73972603E-07
  1 2.73972603E-07
  1 2.73972603E-07
  1 2.73972603E-07
  1 2.73972603E-07
  1 2.73972603E-07
  1 2.73972603E-07
  1 2.73972603E-07
  1 2.73972603E-07
  1 2.73972603E-07
  1 2.73972603E-07
  1 2.73972603E-07
  1 2.73972603E-07
  1 2.73972603E-07
  1 2.73972603E-07
  1 2.73972603E-07
  1 2.73972603E-07
  1 2.73972603E-07
  1 2.73972603E-07
  1 2.73972603E-07
  1 2.73972603E-07
  1 2.73972603E-07
  1 2.73972603E-07
  1 2.73972603E-07
  1 2.73972603E-07
  1 2.73972603E-07
  1 2.73972603E-07
  1 2.73972603E-07
  1 2.73972603E-07
  1 2.73972603E-07
  1 2.73972603E-07
  1 2.73972603E-07
  1 2.73972603E-07
  1 2.73972603E-07
  1 2.73972603E-07
  1 2.73972603E-07
  1 2.73972603E-07
  1 2.73972603E-07
  1 2.73972603E-07
  1 2.73972603E-07
  1 2.73972603E-07
  1 2.73972603E-07
  1 2.73972603E-07
  1 2.73972603E-07
  1 2.73972603E-07
  1 2.73972603E-07
  1 2.73972603E-07
  1 2.73972603E-07
  1 2.73972603E-07
  1 2.73972603E-07
  1 2.73972603E-07
  1 2.73972603E-07
  1 2.73972603E-07
  1 2.73972603E-07
  1 2.73972603E-07
  1 2.73972603E-07
  1 2.73972603E-07
  1 2.73972603E-07
  1 2.73972603E-07
  1 2.73972603E-07
  1 2.73972603E-07
  1 2.73972603E-07
  1 2.73972603E-07
  1 2.73972603E-07
  1 2.73972603E-07
  1 2.73972603E-07
  1 2.73972603E-07
  1 2.73972603E-07
  1 2.73972603E-07
  1 2.73972603E-07
  1 2.73972603E-07
  1 2.73972603E-07
  1 2.73972603E-07
  1 2.73972603E-07
  1 2.73972603E-07
  1 2.73972603E-07
  1 2.73972603E-07
  1 2.73972603E-07
  1 2.73972603E-07
  1 2.73972603E-07
  1 2.73972603E-07
  1 2.73972603E-07
  1 2.73972603E-07
  1 2.73972603E-07
  1 2.73972603E-07
  1 2.73972603E-07
  1 2.73972603E-07
  1 2.73972603E-07
  1 2.73972603E-07
  1 2.73972603E-07
  1 2.73972603E-07
  1 2.73972603E-07
  1 2.73972603E-07
  1 2.73972603E-07
  1 2.73972603E-07
  1 2.73972603E-07
  1 2.73972603E-07
  1 2.73972603E-07
  1 2.73972603E-07
  1 2.73972603E-07
  1 2.73972603E-07
  1 2.73972603E-07
  1 2.73972603E-07
  1 2.73972603E-07
  1 2.73972603E-07
  1 2.73972603E-07
  1 2.73972603E-07
  1 2.73972603E-07
  1 2.73972603E-07
  1 2.73972603E-07
  1 2.73972603E-07
  1 2.73972603E-07
  1 2.73972603E-07
  1 2.73972603E-07
  1 2.73972603E-07
  1 2.73972603E-07
  1 2.73972603E-07
  1 2.73972603E-07
  1 2.73972603E-07
  1 2.73972603E-07
  1 2.73972603E-07
  1 2.73972603E-07
  1 2.73972603E-07
  1 2.73972603E-07
  1 2.73972603E-07
  1 2.73972603E-07
  1 2.73972603E-07
  1 2.73972603E-07
  1 2.73972603E-07
  1 2.73972603E-07
  1 2.73972603E-07
  1 2.73972603E-07
  1 2.73972603E-07
  1 2.73972603E-07
  1 2.73972603E-07
  1 2.73972603E-07
  1 2.73972603E-07
  1 2.73972603E-07
  1 2.73972603E-07
  1 2.73972603E-07
  1 2.73972603E-07
  1 2.73972603E-07
  1 2.73972603E-07
  1 2.73972603E-07
  1 2.73972603E-07
  1 2.73972603E-07
  1 2.73972603E-07
  1 2.73972603E-07
  1 2.73972603E-07
  1 2.73972603E-07
  1 2.73972603E-07
  1 2.73972603E-07
  1 2.73972603E-07
  1 2.73972603E-07
  1 2.73972603E-07
  1 2.73972603E-07
  1 2.73972603E-07
  1 2.73972603E-07
  1 2.73972603E-07
  1 2.73972603E-07
  1 2.73972603E-07
  1 2.73972603E-07
  1 2.73972603E-07
  1 2.73972603E-07
  1 2.73972603E-07
  1 2.73972603E-07
  1 2.73972603E-07
  1 2.73972603E-07
  1 2.73972603E-07
  1 2.73972603E-07
  1 2.73972603E-07
  1 2.73972603E-07
  1 2.73972603E-07
  1 2.73972603E-07
  1 2.73972603E-07
  1 2.73972603E-07
  1 2.73972603E-07
  1 2.73972603E-07
  1 2.73972603E-07
  1 2.73972603E-07
  1 2.73972603E-07
  1 2.73972603E-07
  1 2.73972603E-07
  1 2.73972603E-07
  1 2.73972603E-07
  1 2.73972603E-07
  1 2.73972603E-07
  1 2.73972603E-07
  1 2.73972603E-07
  1 2.73972603E-07
  1 2.73972603E-07
  1 2.73972603E-07
  1 2.73972603E-07
  1 2.73972603E-07
  1 2.73972603E-07
  1 2.73972603E-07
  1 2.73972603E-07
  1 2.73972603E-07
  1 2.73972603E-07
  1 2.73972603E-07
  1 2.73972603E-07
  1 2.73972603E-07
  1 2.73972603E-07
  1 2.73972603E-07
  1 2.73972603E-07
  1 2.73972603E-07
  1 2.73972603E-07
  1 2.73972603E-07
  1 2.73972603E-07
  1 2.73972603E-07
  1 2.73972603E-07
  1 2.73972603E-07
  1 2.73972603E-07
  1 2.73972603E-07
  1 2.73972603E-07
  1 2.73972603E-07
  1 2.73972603E-07
  1 2.73972603E-07
  1 2.73972603E-07
  1 2.73972603E-07
  1 2.73972603E-07
  1 2.73972603E-07
  1 2.73972603E-07
  1 2.73972603E-07
  1 2.73972603E-07
  1 2.73972603E-07
  1 2.73972603E-07
  1 2.73972603E-07
  1 2.73972603E-07
  1 2.73972603E-07
  1 2.73972603E-07
  1 2.73972603E-07
  1 2.73972603E-07
  1 2.73972603E-07
  1 2.73972603E-07
  1 2.73972603E-07
  1 2.73972603E-07
  1 2.73972603E-07
  1 2.73972603E-07
  1 2.73972603E-07
  1 2.73972603E-07
  1 2.73972603E-07
  1 2.73972603E-07
  1 2.73972603E-07
  1 2.73972603E-07
  1 2.73972603E-07
  1 2.73972603E-07
  1 2.73972603E-07
  1 2.73972603E-07
  1 2.73972603E-07
  1 2.73972603E-07
  1 2.73972603E-07
  1 2.73972603E-07
  1 2.73972603E-07
  1 2.73972603E-07
  1 2.73972603E-07
  1 2.73972603E-07
  1 2.73972603E-07
  1 2.73972603E-07
  1 2.73972603E-07
  1 2.73972603E-07
  1 2.73972603E-07
  1 2.73972603E-07
  1 2.73972603E-07
  1 2.73972603E-07
  1 2.73972603E-07
  1 2.73972603E-07
  1 2.73972603E-07
  1 2.73972603E-07
  1 2.73972603E-07
  1 2.73972603E-07
  1 2.73972603E-07
  1 2.73972603E-07
  1 2.73972603E-07
  1 2.73972603E-07
  1 2.73972603E-07
  1 2.73972603E-07
  1 2.73972603E-07
  1 2.73972603E-07
  1 2.73972603E-07
  1 2.73972603E-07
  1 2.73972603E-07
  1 2.73972603E-07
  1 2.73972603E-07
  1 2.73972603E-07
  1 2.73972603E-07
  1 2.73972603E-07
  1 2.73972603E-07
  1 2.73972603E-07
  1 2.73972603E-07
  1 2.73972603E-07
  1 2.73972603E-07
  1 2.73972603E-07
  1 2.73972603E-07
  1 2.73972603E-07
  1 2.73972603E-07
  1 2.73972603E-07
  1 2.73972603E-07
  1 2.73972603E-07
  1 2.73972603E-07
  1 2.73972603E-07
  1 2.73972603E-07
  1 2.73972603E-07
  1 2.73972603E-07
  1 2.73972603E-07
  1 2.73972603E-07
  1 2.73972603E-07
  1 2.73972603E-07
  1 2.73972603E-07
  1 2.73972603E-07
  1 2.73972603E-07
  1 2.73972603E-07
  1 2.73972603E-07
  1 2.73972603E-07
  1 2.73972603E-07
  1 2.73972603E-07
  1 2.73972603E-07
  1 2.73972603E-07
  1 2.73972603E-07
  1 2.73972603E-07
  1 2.73972603E-07
  1 2.73972603E-07
  1 2.73972603E-07
  1 2.73972603E-07
  1 2.73972603E-07
  1 2.73972603E-07
  1 2.73972603E-07
  1 2.73972603E-07
  1 2.73972603E-07
  1 2.73972603E-07
  1 2.73972603E-07
  1 2.73972603E-07
  1 2.73972603E-07
  1 2.73972603E-07
  1 2.73972603E-07
  1 2.73972603E-07
  1 2.73972603E-07
  1 2.73972603E-07
  1 2.73972603E-07
  1 2.73972603E-07
  1 2.73972603E-07
  1 2.73972603E-07
  1 2.73972603E-07
  1 2.73972603E-07
  1 2.73972603E-07
  1 2.73972603E-07
  1 2.73972603E-07
  1 2.73972603E-07
  1 2.73972603E-07
  1 2.73972603E-07
  1 2.73972603E-07
  1 2.73972603E-07
  1 2.73972603E-07
  1 2.73972603E-07
  1 2.73972603E-07
  1 2.73972603E-07
  1 2.73972603E-07
  1 2.73972603E-07
  1 2.73972603E-07
  1 2.73972603E-07
  1 2.73972603E-07
  1 2.73972603E-07
  1 2.73972603E-07
  1 2.73972603E-07
  1 2.73972603E-07
  1 2.73972603E-07
  1 2.73972603E-07
  1 2.73972603E-07
  1 2.73972603E-07
  1 2.73972603E-07
  1 2.73972603E-07
  1 2.73972603E-07
  1 2.73972603E-07
  1 2.73972603E-07
  1 2.73972603E-07
  1 2.73972603E-07
  1 2.73972603E-07
  1 2.73972603E-07
  1 2.73972603E-07
  1 2.73972603E-07
  1 2.73972603E-07
  1 2.73972603E-07
  1 2.73972603E-07
  1 2.73972603E-07
  1 2.73972603E-07
  1 2.73972603E-07
  1 2.73972603E-07
  1 2.73972603E-07
  1 2.73972603E-07
  1 2.73972603E-07
  1 2.73972603E-07
  1 2.73972603E-07
  1 2.73972603E-07
  1 2.73972603E-07
  1 2.73972603E-07
  1 2.73972603E-07
  1 2.73972603E-07
  1 2.73972603E-07
  1 2.73972603E-07
  1 2.73972603E-07
  1 2.73972603E-07
  1 2.73972603E-07
  1 2.73972603E-07
  1 2.73972603E-07
  1 2.73972603E-07
  1 2.73972603E-07
  1 2.73972603E-07
  1 2.73972603E-07
  1 2.73972603E-07
  1 2.73972603E-07
  1 2.73972603E-07
  1 2.73972603E-07
  1 2.73972603E-07
  1 2.73972603E-07
  1 2.73972603E-07
  1 2.73972603E-07
  1 2.73972603E-07
  1 2.73972603E-07
  1 2.73972603E-07
  1 2.73972603E-07
  1 2.73972603E-07
  1 2.73972603E-07
  1 2.73972603E-07
  1 2.73972603E-07
  1 2.73972603E-07
  1 2.73972603E-07
END period  1

