# File generated by Flopy version 3.8.2 on 02/18/2025 at 17:59:34.
BEGIN options
  BUDGET  FILEOUT  transientmodel.bud
  HEAD  FILEOUT  transientmodel.hds
END options

BEGIN period  1
  SAVE  HEAD  LAST
  SAVE  BUDGET  ALL
END period  1

